<?xml version="1.0" encoding="utf-8"?>
	<routes xmlns:xsi="http://www.w3.org/2001/XMLSchema-instance" xsi:noNamespaceSchemaLocation="http://sumo.dlr.de/xsd/routes_file.xsd">
		<vType accel="2.0" decel="4.5" id="pkw" length="5.0" maxSpeed="11.111" minGap="2.5" width="2.0"/>
		<vehicle depart="0" id="0">
			<route edges="road_0_1_0 road_1_1_0"/>
		</vehicle>
		<vehicle depart="3" id="1">
			<route edges="road_0_1_0 road_1_1_0"/>
		</vehicle>
		<vehicle depart="8" id="2">
			<route edges="road_0_1_0 road_1_1_0"/>
		</vehicle>
		<vehicle depart="11" id="3">
			<route edges="road_0_1_0 road_1_1_0"/>
		</vehicle>
		<vehicle depart="14" id="4">
			<route edges="road_1_0_1 road_1_1_1"/>
		</vehicle>
		<vehicle depart="16" id="5">
			<route edges="road_0_1_0 road_1_1_0"/>
		</vehicle>
		<vehicle depart="16" id="6">
			<route edges="road_1_2_3 road_1_1_3"/>
		</vehicle>
		<vehicle depart="17" id="7">
			<route edges="road_1_0_1 road_1_1_1"/>
		</vehicle>
		<vehicle depart="18" id="8">
			<route edges="road_1_0_1 road_1_1_1"/>
		</vehicle>
		<vehicle depart="19" id="9">
			<route edges="road_1_0_1 road_1_1_1"/>
		</vehicle>
		<vehicle depart="22" id="10">
			<route edges="road_0_1_0 road_1_1_0"/>
		</vehicle>
		<vehicle depart="24" id="11">
			<route edges="road_2_1_2 road_1_1_2"/>
		</vehicle>
		<vehicle depart="24" id="12">
			<route edges="road_2_1_2 road_1_1_3"/>
		</vehicle>
		<vehicle depart="24" id="13">
			<route edges="road_1_2_3 road_1_1_3"/>
		</vehicle>
		<vehicle depart="26" id="14">
			<route edges="road_0_1_0 road_1_1_0"/>
		</vehicle>
		<vehicle depart="30" id="15">
			<route edges="road_1_2_3 road_1_1_3"/>
		</vehicle>
		<vehicle depart="31" id="16">
			<route edges="road_0_1_0 road_1_1_0"/>
		</vehicle>
		<vehicle depart="34" id="17">
			<route edges="road_1_2_3 road_1_1_3"/>
		</vehicle>
		<vehicle depart="35" id="18">
			<route edges="road_0_1_0 road_1_1_0"/>
		</vehicle>
		<vehicle depart="35" id="19">
			<route edges="road_0_1_0 road_1_1_0"/>
		</vehicle>
		<vehicle depart="39" id="20">
			<route edges="road_1_0_1 road_1_1_1"/>
		</vehicle>
		<vehicle depart="39" id="21">
			<route edges="road_1_0_1 road_1_1_2"/>
		</vehicle>
		<vehicle depart="41" id="22">
			<route edges="road_1_0_1 road_1_1_1"/>
		</vehicle>
		<vehicle depart="41" id="23">
			<route edges="road_1_0_1 road_1_1_2"/>
		</vehicle>
		<vehicle depart="41" id="24">
			<route edges="road_0_1_0 road_1_1_0"/>
		</vehicle>
		<vehicle depart="43" id="25">
			<route edges="road_1_0_1 road_1_1_1"/>
		</vehicle>
		<vehicle depart="43" id="26">
			<route edges="road_1_0_1 road_1_1_2"/>
		</vehicle>
		<vehicle depart="43" id="27">
			<route edges="road_0_1_0 road_1_1_0"/>
		</vehicle>
		<vehicle depart="44" id="28">
			<route edges="road_1_2_3 road_1_1_3"/>
		</vehicle>
		<vehicle depart="45" id="29">
			<route edges="road_0_1_0 road_1_1_0"/>
		</vehicle>
		<vehicle depart="46" id="30">
			<route edges="road_1_2_3 road_1_1_3"/>
		</vehicle>
		<vehicle depart="46" id="31">
			<route edges="road_1_2_3 road_1_1_0"/>
		</vehicle>
		<vehicle depart="47" id="32">
			<route edges="road_1_0_1 road_1_1_1"/>
		</vehicle>
		<vehicle depart="48" id="33">
			<route edges="road_1_2_3 road_1_1_3"/>
		</vehicle>
		<vehicle depart="49" id="34">
			<route edges="road_1_0_1 road_1_1_1"/>
		</vehicle>
		<vehicle depart="52" id="35">
			<route edges="road_1_2_3 road_1_1_3"/>
		</vehicle>
		<vehicle depart="52" id="36">
			<route edges="road_1_0_1 road_1_1_1"/>
		</vehicle>
		<vehicle depart="55" id="37">
			<route edges="road_1_2_3 road_1_1_3"/>
		</vehicle>
		<vehicle depart="55" id="38">
			<route edges="road_1_0_1 road_1_1_1"/>
		</vehicle>
		<vehicle depart="56" id="39">
			<route edges="road_0_1_0 road_1_1_0"/>
		</vehicle>
		<vehicle depart="66" id="40">
			<route edges="road_1_0_1 road_1_1_1"/>
		</vehicle>
		<vehicle depart="67" id="41">
			<route edges="road_0_1_0 road_1_1_0"/>
		</vehicle>
		<vehicle depart="75" id="42">
			<route edges="road_0_1_0 road_1_1_0"/>
		</vehicle>
		<vehicle depart="75" id="43">
			<route edges="road_0_1_0 road_1_1_1"/>
		</vehicle>
		<vehicle depart="77" id="44">
			<route edges="road_0_1_0 road_1_1_0"/>
		</vehicle>
		<vehicle depart="78" id="45">
			<route edges="road_2_1_2 road_1_1_2"/>
		</vehicle>
		<vehicle depart="78" id="46">
			<route edges="road_2_1_2 road_1_1_2"/>
		</vehicle>
		<vehicle depart="79" id="47">
			<route edges="road_2_1_2 road_1_1_2"/>
		</vehicle>
		<vehicle depart="80" id="48">
			<route edges="road_2_1_2 road_1_1_2"/>
		</vehicle>
		<vehicle depart="83" id="49">
			<route edges="road_0_1_0 road_1_1_0"/>
		</vehicle>
		<vehicle depart="85" id="50">
			<route edges="road_2_1_2 road_1_1_2"/>
		</vehicle>
		<vehicle depart="93" id="51">
			<route edges="road_0_1_0 road_1_1_0"/>
		</vehicle>
		<vehicle depart="95" id="52">
			<route edges="road_0_1_0 road_1_1_0"/>
		</vehicle>
		<vehicle depart="100" id="53">
			<route edges="road_0_1_0 road_1_1_0"/>
		</vehicle>
		<vehicle depart="104" id="54">
			<route edges="road_0_1_0 road_1_1_0"/>
		</vehicle>
		<vehicle depart="107" id="55">
			<route edges="road_0_1_0 road_1_1_0"/>
		</vehicle>
		<vehicle depart="109" id="56">
			<route edges="road_1_0_1 road_1_1_1"/>
		</vehicle>
		<vehicle depart="109" id="57">
			<route edges="road_1_0_1 road_1_1_2"/>
		</vehicle>
		<vehicle depart="111" id="58">
			<route edges="road_0_1_0 road_1_1_0"/>
		</vehicle>
		<vehicle depart="115" id="59">
			<route edges="road_1_0_1 road_1_1_1"/>
		</vehicle>
		<vehicle depart="115" id="60">
			<route edges="road_1_0_1 road_1_1_2"/>
		</vehicle>
		<vehicle depart="115" id="61">
			<route edges="road_1_0_1 road_1_1_1"/>
		</vehicle>
		<vehicle depart="117" id="62">
			<route edges="road_0_1_0 road_1_1_0"/>
		</vehicle>
		<vehicle depart="120" id="63">
			<route edges="road_0_1_0 road_1_1_0"/>
		</vehicle>
		<vehicle depart="122" id="64">
			<route edges="road_0_1_0 road_1_1_0"/>
		</vehicle>
		<vehicle depart="122" id="65">
			<route edges="road_0_1_0 road_1_1_1"/>
		</vehicle>
		<vehicle depart="124" id="66">
			<route edges="road_1_0_1 road_1_1_1"/>
		</vehicle>
		<vehicle depart="126" id="67">
			<route edges="road_0_1_0 road_1_1_0"/>
		</vehicle>
		<vehicle depart="128" id="68">
			<route edges="road_2_1_2 road_1_1_2"/>
		</vehicle>
		<vehicle depart="131" id="69">
			<route edges="road_2_1_2 road_1_1_2"/>
		</vehicle>
		<vehicle depart="131" id="70">
			<route edges="road_1_2_3 road_1_1_3"/>
		</vehicle>
		<vehicle depart="133" id="71">
			<route edges="road_0_1_0 road_1_1_0"/>
		</vehicle>
		<vehicle depart="134" id="72">
			<route edges="road_2_1_2 road_1_1_2"/>
		</vehicle>
		<vehicle depart="134" id="73">
			<route edges="road_1_2_3 road_1_1_3"/>
		</vehicle>
		<vehicle depart="136" id="74">
			<route edges="road_2_1_2 road_1_1_2"/>
		</vehicle>
		<vehicle depart="136" id="75">
			<route edges="road_0_1_0 road_1_1_0"/>
		</vehicle>
		<vehicle depart="141" id="76">
			<route edges="road_0_1_0 road_1_1_0"/>
		</vehicle>
		<vehicle depart="144" id="77">
			<route edges="road_1_0_1 road_1_1_1"/>
		</vehicle>
		<vehicle depart="146" id="78">
			<route edges="road_0_1_0 road_1_1_0"/>
		</vehicle>
		<vehicle depart="151" id="79">
			<route edges="road_1_0_1 road_1_1_1"/>
		</vehicle>
		<vehicle depart="152" id="80">
			<route edges="road_1_0_1 road_1_1_1"/>
		</vehicle>
		<vehicle depart="153" id="81">
			<route edges="road_2_1_2 road_1_1_2"/>
		</vehicle>
		<vehicle depart="153" id="82">
			<route edges="road_0_1_0 road_1_1_0"/>
		</vehicle>
		<vehicle depart="154" id="83">
			<route edges="road_1_0_1 road_1_1_1"/>
		</vehicle>
		<vehicle depart="154" id="84">
			<route edges="road_1_2_3 road_1_1_3"/>
		</vehicle>
		<vehicle depart="154" id="85">
			<route edges="road_2_1_2 road_1_1_2"/>
		</vehicle>
		<vehicle depart="155" id="86">
			<route edges="road_0_1_0 road_1_1_0"/>
		</vehicle>
		<vehicle depart="155" id="87">
			<route edges="road_0_1_0 road_1_1_1"/>
		</vehicle>
		<vehicle depart="155" id="88">
			<route edges="road_1_2_3 road_1_1_3"/>
		</vehicle>
		<vehicle depart="156" id="89">
			<route edges="road_2_1_2 road_1_1_2"/>
		</vehicle>
		<vehicle depart="157" id="90">
			<route edges="road_0_1_0 road_1_1_0"/>
		</vehicle>
		<vehicle depart="157" id="91">
			<route edges="road_0_1_0 road_1_1_1"/>
		</vehicle>
		<vehicle depart="158" id="92">
			<route edges="road_1_0_1 road_1_1_1"/>
		</vehicle>
		<vehicle depart="159" id="93">
			<route edges="road_0_1_0 road_1_1_0"/>
		</vehicle>
		<vehicle depart="160" id="94">
			<route edges="road_1_0_1 road_1_1_1"/>
		</vehicle>
		<vehicle depart="163" id="95">
			<route edges="road_0_1_0 road_1_1_0"/>
		</vehicle>
		<vehicle depart="163" id="96">
			<route edges="road_1_0_1 road_1_1_1"/>
		</vehicle>
		<vehicle depart="167" id="97">
			<route edges="road_0_1_0 road_1_1_0"/>
		</vehicle>
		<vehicle depart="167" id="98">
			<route edges="road_0_1_0 road_1_1_1"/>
		</vehicle>
		<vehicle depart="168" id="99">
			<route edges="road_1_0_1 road_1_1_1"/>
		</vehicle>
		<vehicle depart="169" id="100">
			<route edges="road_0_1_0 road_1_1_0"/>
		</vehicle>
		<vehicle depart="169" id="101">
			<route edges="road_0_1_0 road_1_1_0"/>
		</vehicle>
		<vehicle depart="170" id="102">
			<route edges="road_1_0_1 road_1_1_1"/>
		</vehicle>
		<vehicle depart="172" id="103">
			<route edges="road_0_1_0 road_1_1_0"/>
		</vehicle>
		<vehicle depart="173" id="104">
			<route edges="road_0_1_0 road_1_1_0"/>
		</vehicle>
		<vehicle depart="175" id="105">
			<route edges="road_1_0_1 road_1_1_1"/>
		</vehicle>
		<vehicle depart="175" id="106">
			<route edges="road_1_0_1 road_1_1_1"/>
		</vehicle>
		<vehicle depart="175" id="107">
			<route edges="road_1_0_1 road_1_1_2"/>
		</vehicle>
		<vehicle depart="176" id="108">
			<route edges="road_1_2_3 road_1_1_3"/>
		</vehicle>
		<vehicle depart="178" id="109">
			<route edges="road_0_1_0 road_1_1_0"/>
		</vehicle>
		<vehicle depart="178" id="110">
			<route edges="road_0_1_0 road_1_1_1"/>
		</vehicle>
		<vehicle depart="182" id="111">
			<route edges="road_1_0_1 road_1_1_1"/>
		</vehicle>
		<vehicle depart="184" id="112">
			<route edges="road_0_1_0 road_1_1_0"/>
		</vehicle>
		<vehicle depart="189" id="113">
			<route edges="road_1_2_3 road_1_1_3"/>
		</vehicle>
		<vehicle depart="189" id="114">
			<route edges="road_0_1_0 road_1_1_0"/>
		</vehicle>
		<vehicle depart="189" id="115">
			<route edges="road_1_0_1 road_1_1_1"/>
		</vehicle>
		<vehicle depart="193" id="116">
			<route edges="road_1_2_3 road_1_1_3"/>
		</vehicle>
		<vehicle depart="194" id="117">
			<route edges="road_1_0_1 road_1_1_1"/>
		</vehicle>
		<vehicle depart="195" id="118">
			<route edges="road_1_2_3 road_1_1_3"/>
		</vehicle>
		<vehicle depart="195" id="119">
			<route edges="road_1_2_3 road_1_1_0"/>
		</vehicle>
		<vehicle depart="197" id="120">
			<route edges="road_1_0_1 road_1_1_1"/>
		</vehicle>
		<vehicle depart="197" id="121">
			<route edges="road_1_0_1 road_1_1_2"/>
		</vehicle>
		<vehicle depart="198" id="122">
			<route edges="road_1_0_1 road_1_1_1"/>
		</vehicle>
		<vehicle depart="198" id="123">
			<route edges="road_1_2_3 road_1_1_3"/>
		</vehicle>
		<vehicle depart="198" id="124">
			<route edges="road_0_1_0 road_1_1_0"/>
		</vehicle>
		<vehicle depart="199" id="125">
			<route edges="road_0_1_0 road_1_1_0"/>
		</vehicle>
		<vehicle depart="204" id="126">
			<route edges="road_0_1_0 road_1_1_0"/>
		</vehicle>
		<vehicle depart="208" id="127">
			<route edges="road_1_0_1 road_1_1_1"/>
		</vehicle>
		<vehicle depart="208" id="128">
			<route edges="road_1_0_1 road_1_1_2"/>
		</vehicle>
		<vehicle depart="209" id="129">
			<route edges="road_1_0_1 road_1_1_1"/>
		</vehicle>
		<vehicle depart="210" id="130">
			<route edges="road_1_0_1 road_1_1_1"/>
		</vehicle>
		<vehicle depart="213" id="131">
			<route edges="road_1_2_3 road_1_1_3"/>
		</vehicle>
		<vehicle depart="215" id="132">
			<route edges="road_1_0_1 road_1_1_1"/>
		</vehicle>
		<vehicle depart="215" id="133">
			<route edges="road_1_2_3 road_1_1_3"/>
		</vehicle>
		<vehicle depart="215" id="134">
			<route edges="road_1_0_1 road_1_1_1"/>
		</vehicle>
		<vehicle depart="219" id="135">
			<route edges="road_1_0_1 road_1_1_1"/>
		</vehicle>
		<vehicle depart="223" id="136">
			<route edges="road_1_0_1 road_1_1_1"/>
		</vehicle>
		<vehicle depart="236" id="137">
			<route edges="road_0_1_0 road_1_1_0"/>
		</vehicle>
		<vehicle depart="236" id="138">
			<route edges="road_0_1_0 road_1_1_1"/>
		</vehicle>
		<vehicle depart="237" id="139">
			<route edges="road_1_0_1 road_1_1_1"/>
		</vehicle>
		<vehicle depart="237" id="140">
			<route edges="road_1_0_1 road_1_1_2"/>
		</vehicle>
		<vehicle depart="246" id="141">
			<route edges="road_2_1_2 road_1_1_2"/>
		</vehicle>
		<vehicle depart="247" id="142">
			<route edges="road_2_1_2 road_1_1_2"/>
		</vehicle>
		<vehicle depart="249" id="143">
			<route edges="road_0_1_0 road_1_1_0"/>
		</vehicle>
		<vehicle depart="252" id="144">
			<route edges="road_2_1_2 road_1_1_2"/>
		</vehicle>
		<vehicle depart="265" id="145">
			<route edges="road_0_1_0 road_1_1_0"/>
		</vehicle>
		<vehicle depart="267" id="146">
			<route edges="road_2_1_2 road_1_1_2"/>
		</vehicle>
		<vehicle depart="268" id="147">
			<route edges="road_2_1_2 road_1_1_2"/>
		</vehicle>
		<vehicle depart="272" id="148">
			<route edges="road_2_1_2 road_1_1_2"/>
		</vehicle>
		<vehicle depart="278" id="149">
			<route edges="road_2_1_2 road_1_1_2"/>
		</vehicle>
		<vehicle depart="278" id="150">
			<route edges="road_2_1_2 road_1_1_2"/>
		</vehicle>
		<vehicle depart="280" id="151">
			<route edges="road_0_1_0 road_1_1_0"/>
		</vehicle>
		<vehicle depart="286" id="152">
			<route edges="road_2_1_2 road_1_1_2"/>
		</vehicle>
		<vehicle depart="291" id="153">
			<route edges="road_1_0_1 road_1_1_1"/>
		</vehicle>
		<vehicle depart="293" id="154">
			<route edges="road_1_0_1 road_1_1_1"/>
		</vehicle>
		<vehicle depart="295" id="155">
			<route edges="road_1_0_1 road_1_1_1"/>
		</vehicle>
		<vehicle depart="296" id="156">
			<route edges="road_1_0_1 road_1_1_1"/>
		</vehicle>
		<vehicle depart="297" id="157">
			<route edges="road_1_0_1 road_1_1_1"/>
		</vehicle>
		<vehicle depart="297" id="158">
			<route edges="road_1_0_1 road_1_1_2"/>
		</vehicle>
		<vehicle depart="300" id="159">
			<route edges="road_2_1_2 road_1_1_2"/>
		</vehicle>
		<vehicle depart="300" id="160">
			<route edges="road_2_1_2 road_1_1_3"/>
		</vehicle>
		<vehicle depart="311" id="161">
			<route edges="road_0_1_0 road_1_1_0"/>
		</vehicle>
		<vehicle depart="313" id="162">
			<route edges="road_1_0_1 road_1_1_1"/>
		</vehicle>
		<vehicle depart="316" id="163">
			<route edges="road_1_2_3 road_1_1_3"/>
		</vehicle>
		<vehicle depart="319" id="164">
			<route edges="road_1_0_1 road_1_1_1"/>
		</vehicle>
		<vehicle depart="321" id="165">
			<route edges="road_2_1_2 road_1_1_2"/>
		</vehicle>
		<vehicle depart="322" id="166">
			<route edges="road_1_2_3 road_1_1_3"/>
		</vehicle>
		<vehicle depart="323" id="167">
			<route edges="road_1_2_3 road_1_1_3"/>
		</vehicle>
		<vehicle depart="327" id="168">
			<route edges="road_2_1_2 road_1_1_2"/>
		</vehicle>
		<vehicle depart="329" id="169">
			<route edges="road_2_1_2 road_1_1_2"/>
		</vehicle>
		<vehicle depart="329" id="170">
			<route edges="road_2_1_2 road_1_1_3"/>
		</vehicle>
		<vehicle depart="330" id="171">
			<route edges="road_2_1_2 road_1_1_2"/>
		</vehicle>
		<vehicle depart="330" id="172">
			<route edges="road_0_1_0 road_1_1_0"/>
		</vehicle>
		<vehicle depart="330" id="173">
			<route edges="road_0_1_0 road_1_1_1"/>
		</vehicle>
		<vehicle depart="334" id="174">
			<route edges="road_1_0_1 road_1_1_1"/>
		</vehicle>
		<vehicle depart="336" id="175">
			<route edges="road_2_1_2 road_1_1_2"/>
		</vehicle>
		<vehicle depart="336" id="176">
			<route edges="road_1_0_1 road_1_1_1"/>
		</vehicle>
		<vehicle depart="337" id="177">
			<route edges="road_2_1_2 road_1_1_2"/>
		</vehicle>
		<vehicle depart="340" id="178">
			<route edges="road_2_1_2 road_1_1_2"/>
		</vehicle>
		<vehicle depart="340" id="179">
			<route edges="road_0_1_0 road_1_1_0"/>
		</vehicle>
		<vehicle depart="342" id="180">
			<route edges="road_1_0_1 road_1_1_1"/>
		</vehicle>
		<vehicle depart="344" id="181">
			<route edges="road_0_1_0 road_1_1_0"/>
		</vehicle>
		<vehicle depart="344" id="182">
			<route edges="road_1_2_3 road_1_1_3"/>
		</vehicle>
		<vehicle depart="354" id="183">
			<route edges="road_0_1_0 road_1_1_0"/>
		</vehicle>
		<vehicle depart="356" id="184">
			<route edges="road_1_2_3 road_1_1_3"/>
		</vehicle>
		<vehicle depart="356" id="185">
			<route edges="road_1_2_3 road_1_1_0"/>
		</vehicle>
		<vehicle depart="356" id="186">
			<route edges="road_1_2_3 road_1_1_3"/>
		</vehicle>
		<vehicle depart="360" id="187">
			<route edges="road_1_0_1 road_1_1_1"/>
		</vehicle>
		<vehicle depart="360" id="188">
			<route edges="road_1_2_3 road_1_1_3"/>
		</vehicle>
		<vehicle depart="361" id="189">
			<route edges="road_1_2_3 road_1_1_3"/>
		</vehicle>
		<vehicle depart="361" id="190">
			<route edges="road_1_2_3 road_1_1_0"/>
		</vehicle>
		<vehicle depart="361" id="191">
			<route edges="road_0_1_0 road_1_1_0"/>
		</vehicle>
		<vehicle depart="362" id="192">
			<route edges="road_1_2_3 road_1_1_3"/>
		</vehicle>
		<vehicle depart="364" id="193">
			<route edges="road_1_2_3 road_1_1_3"/>
		</vehicle>
		<vehicle depart="364" id="194">
			<route edges="road_0_1_0 road_1_1_0"/>
		</vehicle>
		<vehicle depart="366" id="195">
			<route edges="road_1_2_3 road_1_1_3"/>
		</vehicle>
		<vehicle depart="366" id="196">
			<route edges="road_1_0_1 road_1_1_1"/>
		</vehicle>
		<vehicle depart="366" id="197">
			<route edges="road_1_0_1 road_1_1_2"/>
		</vehicle>
		<vehicle depart="367" id="198">
			<route edges="road_0_1_0 road_1_1_0"/>
		</vehicle>
		<vehicle depart="367" id="199">
			<route edges="road_0_1_0 road_1_1_1"/>
		</vehicle>
		<vehicle depart="369" id="200">
			<route edges="road_1_2_3 road_1_1_3"/>
		</vehicle>
		<vehicle depart="369" id="201">
			<route edges="road_1_2_3 road_1_1_0"/>
		</vehicle>
		<vehicle depart="371" id="202">
			<route edges="road_1_2_3 road_1_1_3"/>
		</vehicle>
		<vehicle depart="371" id="203">
			<route edges="road_1_2_3 road_1_1_0"/>
		</vehicle>
		<vehicle depart="372" id="204">
			<route edges="road_0_1_0 road_1_1_0"/>
		</vehicle>
		<vehicle depart="374" id="205">
			<route edges="road_1_2_3 road_1_1_3"/>
		</vehicle>
		<vehicle depart="376" id="206">
			<route edges="road_1_2_3 road_1_1_3"/>
		</vehicle>
		<vehicle depart="378" id="207">
			<route edges="road_1_2_3 road_1_1_3"/>
		</vehicle>
		<vehicle depart="378" id="208">
			<route edges="road_1_2_3 road_1_1_3"/>
		</vehicle>
		<vehicle depart="379" id="209">
			<route edges="road_0_1_0 road_1_1_0"/>
		</vehicle>
		<vehicle depart="382" id="210">
			<route edges="road_1_0_1 road_1_1_1"/>
		</vehicle>
		<vehicle depart="389" id="211">
			<route edges="road_0_1_0 road_1_1_0"/>
		</vehicle>
		<vehicle depart="389" id="212">
			<route edges="road_1_0_1 road_1_1_1"/>
		</vehicle>
		<vehicle depart="391" id="213">
			<route edges="road_1_0_1 road_1_1_1"/>
		</vehicle>
		<vehicle depart="391" id="214">
			<route edges="road_1_0_1 road_1_1_2"/>
		</vehicle>
		<vehicle depart="392" id="215">
			<route edges="road_1_0_1 road_1_1_1"/>
		</vehicle>
		<vehicle depart="393" id="216">
			<route edges="road_1_0_1 road_1_1_1"/>
		</vehicle>
		<vehicle depart="396" id="217">
			<route edges="road_1_0_1 road_1_1_1"/>
		</vehicle>
		<vehicle depart="398" id="218">
			<route edges="road_1_0_1 road_1_1_1"/>
		</vehicle>
		<vehicle depart="400" id="219">
			<route edges="road_1_0_1 road_1_1_1"/>
		</vehicle>
		<vehicle depart="401" id="220">
			<route edges="road_1_2_3 road_1_1_3"/>
		</vehicle>
		<vehicle depart="401" id="221">
			<route edges="road_1_0_1 road_1_1_1"/>
		</vehicle>
		<vehicle depart="402" id="222">
			<route edges="road_1_2_3 road_1_1_3"/>
		</vehicle>
		<vehicle depart="403" id="223">
			<route edges="road_1_0_1 road_1_1_1"/>
		</vehicle>
		<vehicle depart="404" id="224">
			<route edges="road_1_2_3 road_1_1_3"/>
		</vehicle>
		<vehicle depart="405" id="225">
			<route edges="road_1_2_3 road_1_1_3"/>
		</vehicle>
		<vehicle depart="405" id="226">
			<route edges="road_1_2_3 road_1_1_0"/>
		</vehicle>
		<vehicle depart="405" id="227">
			<route edges="road_1_0_1 road_1_1_1"/>
		</vehicle>
		<vehicle depart="407" id="228">
			<route edges="road_1_2_3 road_1_1_3"/>
		</vehicle>
		<vehicle depart="408" id="229">
			<route edges="road_1_0_1 road_1_1_1"/>
		</vehicle>
		<vehicle depart="412" id="230">
			<route edges="road_1_0_1 road_1_1_1"/>
		</vehicle>
		<vehicle depart="412" id="231">
			<route edges="road_1_0_1 road_1_1_2"/>
		</vehicle>
		<vehicle depart="415" id="232">
			<route edges="road_1_0_1 road_1_1_1"/>
		</vehicle>
		<vehicle depart="416" id="233">
			<route edges="road_0_1_0 road_1_1_0"/>
		</vehicle>
		<vehicle depart="421" id="234">
			<route edges="road_1_2_3 road_1_1_3"/>
		</vehicle>
		<vehicle depart="432" id="235">
			<route edges="road_1_0_1 road_1_1_1"/>
		</vehicle>
		<vehicle depart="445" id="236">
			<route edges="road_2_1_2 road_1_1_2"/>
		</vehicle>
		<vehicle depart="448" id="237">
			<route edges="road_0_1_0 road_1_1_0"/>
		</vehicle>
		<vehicle depart="449" id="238">
			<route edges="road_2_1_2 road_1_1_2"/>
		</vehicle>
		<vehicle depart="450" id="239">
			<route edges="road_0_1_0 road_1_1_0"/>
		</vehicle>
		<vehicle depart="453" id="240">
			<route edges="road_0_1_0 road_1_1_0"/>
		</vehicle>
		<vehicle depart="453" id="241">
			<route edges="road_0_1_0 road_1_1_0"/>
		</vehicle>
		<vehicle depart="455" id="242">
			<route edges="road_0_1_0 road_1_1_0"/>
		</vehicle>
		<vehicle depart="455" id="243">
			<route edges="road_2_1_2 road_1_1_2"/>
		</vehicle>
		<vehicle depart="456" id="244">
			<route edges="road_2_1_2 road_1_1_2"/>
		</vehicle>
		<vehicle depart="457" id="245">
			<route edges="road_0_1_0 road_1_1_0"/>
		</vehicle>
		<vehicle depart="458" id="246">
			<route edges="road_2_1_2 road_1_1_2"/>
		</vehicle>
		<vehicle depart="458" id="247">
			<route edges="road_2_1_2 road_1_1_2"/>
		</vehicle>
		<vehicle depart="459" id="248">
			<route edges="road_0_1_0 road_1_1_0"/>
		</vehicle>
		<vehicle depart="461" id="249">
			<route edges="road_0_1_0 road_1_1_0"/>
		</vehicle>
		<vehicle depart="461" id="250">
			<route edges="road_2_1_2 road_1_1_2"/>
		</vehicle>
		<vehicle depart="461" id="251">
			<route edges="road_2_1_2 road_1_1_3"/>
		</vehicle>
		<vehicle depart="464" id="252">
			<route edges="road_0_1_0 road_1_1_0"/>
		</vehicle>
		<vehicle depart="467" id="253">
			<route edges="road_0_1_0 road_1_1_0"/>
		</vehicle>
		<vehicle depart="469" id="254">
			<route edges="road_0_1_0 road_1_1_0"/>
		</vehicle>
		<vehicle depart="469" id="255">
			<route edges="road_0_1_0 road_1_1_1"/>
		</vehicle>
		<vehicle depart="469" id="256">
			<route edges="road_0_1_0 road_1_1_0"/>
		</vehicle>
		<vehicle depart="469" id="257">
			<route edges="road_0_1_0 road_1_1_1"/>
		</vehicle>
		<vehicle depart="471" id="258">
			<route edges="road_2_1_2 road_1_1_2"/>
		</vehicle>
		<vehicle depart="475" id="259">
			<route edges="road_1_0_1 road_1_1_1"/>
		</vehicle>
		<vehicle depart="476" id="260">
			<route edges="road_2_1_2 road_1_1_2"/>
		</vehicle>
		<vehicle depart="476" id="261">
			<route edges="road_2_1_2 road_1_1_3"/>
		</vehicle>
		<vehicle depart="478" id="262">
			<route edges="road_0_1_0 road_1_1_0"/>
		</vehicle>
		<vehicle depart="478" id="263">
			<route edges="road_0_1_0 road_1_1_1"/>
		</vehicle>
		<vehicle depart="484" id="264">
			<route edges="road_1_0_1 road_1_1_1"/>
		</vehicle>
		<vehicle depart="484" id="265">
			<route edges="road_0_1_0 road_1_1_0"/>
		</vehicle>
		<vehicle depart="486" id="266">
			<route edges="road_0_1_0 road_1_1_0"/>
		</vehicle>
		<vehicle depart="497" id="267">
			<route edges="road_1_0_1 road_1_1_1"/>
		</vehicle>
		<vehicle depart="502" id="268">
			<route edges="road_1_2_3 road_1_1_3"/>
		</vehicle>
		<vehicle depart="502" id="269">
			<route edges="road_2_1_2 road_1_1_2"/>
		</vehicle>
		<vehicle depart="503" id="270">
			<route edges="road_1_2_3 road_1_1_3"/>
		</vehicle>
		<vehicle depart="503" id="271">
			<route edges="road_1_2_3 road_1_1_0"/>
		</vehicle>
		<vehicle depart="504" id="272">
			<route edges="road_1_0_1 road_1_1_1"/>
		</vehicle>
		<vehicle depart="505" id="273">
			<route edges="road_1_2_3 road_1_1_3"/>
		</vehicle>
		<vehicle depart="509" id="274">
			<route edges="road_1_0_1 road_1_1_1"/>
		</vehicle>
		<vehicle depart="509" id="275">
			<route edges="road_1_2_3 road_1_1_3"/>
		</vehicle>
		<vehicle depart="510" id="276">
			<route edges="road_0_1_0 road_1_1_0"/>
		</vehicle>
		<vehicle depart="511" id="277">
			<route edges="road_1_2_3 road_1_1_3"/>
		</vehicle>
		<vehicle depart="511" id="278">
			<route edges="road_1_2_3 road_1_1_0"/>
		</vehicle>
		<vehicle depart="511" id="279">
			<route edges="road_1_0_1 road_1_1_1"/>
		</vehicle>
		<vehicle depart="515" id="280">
			<route edges="road_1_2_3 road_1_1_3"/>
		</vehicle>
		<vehicle depart="516" id="281">
			<route edges="road_1_2_3 road_1_1_3"/>
		</vehicle>
		<vehicle depart="517" id="282">
			<route edges="road_1_0_1 road_1_1_1"/>
		</vehicle>
		<vehicle depart="517" id="283">
			<route edges="road_2_1_2 road_1_1_2"/>
		</vehicle>
		<vehicle depart="517" id="284">
			<route edges="road_1_2_3 road_1_1_3"/>
		</vehicle>
		<vehicle depart="517" id="285">
			<route edges="road_1_2_3 road_1_1_0"/>
		</vehicle>
		<vehicle depart="520" id="286">
			<route edges="road_1_0_1 road_1_1_1"/>
		</vehicle>
		<vehicle depart="520" id="287">
			<route edges="road_1_0_1 road_1_1_2"/>
		</vehicle>
		<vehicle depart="523" id="288">
			<route edges="road_0_1_0 road_1_1_0"/>
		</vehicle>
		<vehicle depart="524" id="289">
			<route edges="road_2_1_2 road_1_1_2"/>
		</vehicle>
		<vehicle depart="529" id="290">
			<route edges="road_2_1_2 road_1_1_2"/>
		</vehicle>
		<vehicle depart="529" id="291">
			<route edges="road_0_1_0 road_1_1_0"/>
		</vehicle>
		<vehicle depart="535" id="292">
			<route edges="road_1_2_3 road_1_1_3"/>
		</vehicle>
		<vehicle depart="535" id="293">
			<route edges="road_1_0_1 road_1_1_1"/>
		</vehicle>
		<vehicle depart="535" id="294">
			<route edges="road_1_0_1 road_1_1_2"/>
		</vehicle>
		<vehicle depart="535" id="295">
			<route edges="road_0_1_0 road_1_1_0"/>
		</vehicle>
		<vehicle depart="541" id="296">
			<route edges="road_1_2_3 road_1_1_3"/>
		</vehicle>
		<vehicle depart="543" id="297">
			<route edges="road_0_1_0 road_1_1_0"/>
		</vehicle>
		<vehicle depart="545" id="298">
			<route edges="road_1_2_3 road_1_1_3"/>
		</vehicle>
		<vehicle depart="547" id="299">
			<route edges="road_2_1_2 road_1_1_2"/>
		</vehicle>
		<vehicle depart="547" id="300">
			<route edges="road_2_1_2 road_1_1_3"/>
		</vehicle>
		<vehicle depart="547" id="301">
			<route edges="road_1_2_3 road_1_1_3"/>
		</vehicle>
		<vehicle depart="547" id="302">
			<route edges="road_0_1_0 road_1_1_0"/>
		</vehicle>
		<vehicle depart="548" id="303">
			<route edges="road_1_2_3 road_1_1_3"/>
		</vehicle>
		<vehicle depart="549" id="304">
			<route edges="road_1_0_1 road_1_1_1"/>
		</vehicle>
		<vehicle depart="549" id="305">
			<route edges="road_0_1_0 road_1_1_0"/>
		</vehicle>
		<vehicle depart="551" id="306">
			<route edges="road_1_2_3 road_1_1_3"/>
		</vehicle>
		<vehicle depart="551" id="307">
			<route edges="road_1_2_3 road_1_1_0"/>
		</vehicle>
		<vehicle depart="554" id="308">
			<route edges="road_1_2_3 road_1_1_3"/>
		</vehicle>
		<vehicle depart="555" id="309">
			<route edges="road_1_2_3 road_1_1_3"/>
		</vehicle>
		<vehicle depart="555" id="310">
			<route edges="road_1_2_3 road_1_1_0"/>
		</vehicle>
		<vehicle depart="558" id="311">
			<route edges="road_1_2_3 road_1_1_3"/>
		</vehicle>
		<vehicle depart="559" id="312">
			<route edges="road_1_0_1 road_1_1_1"/>
		</vehicle>
		<vehicle depart="562" id="313">
			<route edges="road_0_1_0 road_1_1_0"/>
		</vehicle>
		<vehicle depart="564" id="314">
			<route edges="road_1_2_3 road_1_1_3"/>
		</vehicle>
		<vehicle depart="564" id="315">
			<route edges="road_1_2_3 road_1_1_0"/>
		</vehicle>
		<vehicle depart="564" id="316">
			<route edges="road_1_0_1 road_1_1_1"/>
		</vehicle>
		<vehicle depart="566" id="317">
			<route edges="road_1_0_1 road_1_1_1"/>
		</vehicle>
		<vehicle depart="570" id="318">
			<route edges="road_1_2_3 road_1_1_3"/>
		</vehicle>
		<vehicle depart="572" id="319">
			<route edges="road_2_1_2 road_1_1_2"/>
		</vehicle>
		<vehicle depart="573" id="320">
			<route edges="road_1_2_3 road_1_1_3"/>
		</vehicle>
		<vehicle depart="573" id="321">
			<route edges="road_1_2_3 road_1_1_3"/>
		</vehicle>
		<vehicle depart="576" id="322">
			<route edges="road_1_0_1 road_1_1_1"/>
		</vehicle>
		<vehicle depart="577" id="323">
			<route edges="road_1_0_1 road_1_1_1"/>
		</vehicle>
		<vehicle depart="580" id="324">
			<route edges="road_1_0_1 road_1_1_1"/>
		</vehicle>
		<vehicle depart="581" id="325">
			<route edges="road_1_2_3 road_1_1_3"/>
		</vehicle>
		<vehicle depart="581" id="326">
			<route edges="road_1_2_3 road_1_1_0"/>
		</vehicle>
		<vehicle depart="581" id="327">
			<route edges="road_1_0_1 road_1_1_1"/>
		</vehicle>
		<vehicle depart="582" id="328">
			<route edges="road_1_0_1 road_1_1_1"/>
		</vehicle>
		<vehicle depart="582" id="329">
			<route edges="road_1_0_1 road_1_1_1"/>
		</vehicle>
		<vehicle depart="582" id="330">
			<route edges="road_1_0_1 road_1_1_2"/>
		</vehicle>
		<vehicle depart="585" id="331">
			<route edges="road_1_2_3 road_1_1_3"/>
		</vehicle>
		<vehicle depart="590" id="332">
			<route edges="road_1_0_1 road_1_1_1"/>
		</vehicle>
		<vehicle depart="593" id="333">
			<route edges="road_1_0_1 road_1_1_1"/>
		</vehicle>
		<vehicle depart="595" id="334">
			<route edges="road_1_0_1 road_1_1_1"/>
		</vehicle>
		<vehicle depart="596" id="335">
			<route edges="road_0_1_0 road_1_1_0"/>