<?xml version="1.0" encoding="UTF-8"?>

<!-- generated on 2024-11-02 16:49:12.585863 by cutRoutes.py UNKNOWN
  options: hangzhou_4x4_gudang_18041610_1h.net.xml hangzhou_4x4_gudang_18041610_1h.rou.xml <doubleminus>routes-output output.rou.xml <doubleminus>orig-net hangzhou_4x4_gudang_18041610_1h_og.net.xml
-->

<routes xmlns:xsi="http://www.w3.org/2001/XMLSchema-instance" xsi:noNamespaceSchemaLocation="http://sumo.dlr.de/xsd/routes_file.xsd">
    <vType accel="2.0" decel="4.5" id="pkw" length="5.0" maxSpeed="11.111" minGap="2.5" width="2.0"/>
    <vehicle depart="0.00" id="0">
        <route edges="road_4_0_1 road_4_1_1 road_4_2_0"/>
    </vehicle>
    <vehicle depart="0.00" id="1">
        <route edges="road_0_1_0 road_1_1_0 road_2_1_0 road_3_1_3"/>
    </vehicle>
    <vehicle depart="0.00" id="2">
        <route edges="road_5_4_2 road_4_4_2 road_3_4_2 road_2_4_2 road_1_4_1"/>
    </vehicle>
    <vehicle depart="0.00" id="3">
        <route edges="road_0_2_0 road_1_2_3 road_1_1_3"/>
    </vehicle>
    <vehicle depart="0.00" id="5">
        <route edges="road_1_0_1 road_1_1_1 road_1_2_1 road_1_3_1 road_1_4_1"/>
    </vehicle>
    <vehicle depart="0.00" id="6">
        <route edges="road_1_5_3 road_1_4_3 road_1_3_3 road_1_2_2"/>
    </vehicle>
    <vehicle depart="0.00" id="7">
        <route edges="road_0_4_0 road_1_4_0 road_2_4_0 road_3_4_3 road_3_3_2 road_2_3_1"/>
    </vehicle>
    <vehicle depart="4.00" id="9">
        <route edges="road_0_4_0 road_1_4_0 road_2_4_0 road_3_4_0 road_4_4_0"/>
    </vehicle>
    <vehicle depart="7.00" id="10">
        <route edges="road_5_4_2 road_4_4_2 road_3_4_2 road_2_4_1"/>
    </vehicle>
    <vehicle depart="8.00" id="11">
        <route edges="road_0_4_0 road_1_4_1"/>
    </vehicle>
    <vehicle depart="10.00" id="12">
        <route edges="road_0_1_0 road_1_1_0 road_2_1_0 road_3_1_3"/>
    </vehicle>
    <vehicle depart="12.00" id="13">
        <route edges="road_0_4_0 road_1_4_0 road_2_4_3 road_2_3_0 road_3_3_0 road_4_3_0"/>
    </vehicle>
    <vehicle depart="13.00" id="14">
        <route edges="road_4_0_1 road_4_1_2 road_3_1_2 road_2_1_2 road_1_1_3"/>
    </vehicle>
    <vehicle depart="20.00" id="18">
        <route edges="road_0_1_0 road_1_1_0 road_2_1_0 road_3_1_0 road_4_1_3"/>
    </vehicle>
    <vehicle depart="20.00" id="19">
        <route edges="road_0_4_0 road_1_4_3 road_1_3_0 road_2_3_0 road_3_3_0 road_4_3_0"/>
    </vehicle>
    <vehicle depart="21.00" id="20">
        <route edges="road_5_4_2 road_4_4_2 road_3_4_1"/>
    </vehicle>
    <vehicle depart="23.00" id="21">
        <route edges="road_1_0_1 road_1_1_1 road_1_2_1 road_1_3_1 road_1_4_1"/>
    </vehicle>
    <vehicle depart="23.00" id="22">
        <route edges="road_1_5_3 road_1_4_3 road_1_3_0 road_2_3_1 road_2_4_1"/>
    </vehicle>
    <vehicle depart="24.00" id="23">
        <route edges="road_0_4_0 road_1_4_3 road_1_3_3 road_1_2_3 road_1_1_2"/>
    </vehicle>
    <vehicle depart="28.00" id="26">
        <route edges="road_5_4_2 road_4_4_2 road_3_4_2 road_2_4_1"/>
    </vehicle>
    <vehicle depart="28.00" id="27">
        <route edges="road_0_4_0 road_1_4_3 road_1_3_3 road_1_2_2"/>
    </vehicle>
    <vehicle depart="30.00" id="28">
        <route edges="road_0_1_0 road_1_1_3"/>
    </vehicle>
    <vehicle depart="32.00" id="29">
        <route edges="road_0_4_0 road_1_4_0 road_2_4_1"/>
    </vehicle>
    <vehicle depart="35.00" id="30">
        <route edges="road_5_4_2 road_4_4_2 road_3_4_2 road_2_4_3 road_2_3_3 road_2_2_3 road_2_1_3"/>
    </vehicle>
    <vehicle depart="36.00" id="31">
        <route edges="road_0_4_0 road_1_4_3 road_1_3_2"/>
    </vehicle>
    <vehicle depart="37.00" id="33">
        <route edges="road_5_2_2 road_4_2_2 road_3_2_2 road_2_2_1 road_2_3_1 road_2_4_1"/>
    </vehicle>
    <vehicle depart="39.00" id="35">
        <route edges="road_5_3_2 road_4_3_2 road_3_3_2 road_2_3_2 road_1_3_3 road_1_2_3 road_1_1_3"/>
    </vehicle>
    <vehicle depart="40.00" id="36">
        <route edges="road_0_1_0 road_1_1_0 road_2_1_3"/>
    </vehicle>
    <vehicle depart="40.00" id="37">
        <route edges="road_0_4_0 road_1_4_0 road_2_4_0 road_3_4_0 road_4_4_0"/>
    </vehicle>
    <vehicle depart="42.00" id="38">
        <route edges="road_5_4_2 road_4_4_1"/>
    </vehicle>
    <vehicle depart="44.00" id="39">
        <route edges="road_0_4_0 road_1_4_0 road_2_4_3 road_2_3_3 road_2_2_3 road_2_1_3"/>
    </vehicle>
    <vehicle depart="46.00" id="40">
        <route edges="road_1_0_1 road_1_1_0 road_2_1_0 road_3_1_0 road_4_1_0"/>
    </vehicle>
    <vehicle depart="46.00" id="41">
        <route edges="road_1_5_3 road_1_4_3 road_1_3_3 road_1_2_3 road_1_1_0 road_2_1_0 road_3_1_3"/>
    </vehicle>
    <vehicle depart="48.00" id="42">
        <route edges="road_0_4_0 road_1_4_0 road_2_4_1"/>
    </vehicle>
    <vehicle depart="49.00" id="43">
        <route edges="road_5_4_2 road_4_4_2 road_3_4_2 road_2_4_1"/>
    </vehicle>
    <vehicle depart="52.00" id="45">
        <route edges="road_4_0_1 road_4_1_2 road_3_1_2 road_2_1_2 road_1_1_2"/>
    </vehicle>
    <vehicle depart="52.00" id="46">
        <route edges="road_0_4_0 road_1_4_0 road_2_4_1"/>
    </vehicle>
    <vehicle depart="52.00" id="47">
        <route edges="road_5_3_2 road_4_3_2 road_3_3_1 road_3_4_0 road_4_4_0"/>
    </vehicle>
    <vehicle depart="56.00" id="48">
        <route edges="road_5_4_2 road_4_4_1"/>
    </vehicle>
    <vehicle depart="60.00" id="51">
        <route edges="road_0_4_0 road_1_4_0 road_2_4_0 road_3_4_0 road_4_4_0"/>
    </vehicle>
    <vehicle depart="63.00" id="52">
        <route edges="road_5_4_2 road_4_4_2 road_3_4_2 road_2_4_2 road_1_4_1"/>
    </vehicle>
    <vehicle depart="64.00" id="53">
        <route edges="road_0_4_0 road_1_4_0 road_2_4_0 road_3_4_0 road_4_4_0"/>
    </vehicle>
    <vehicle depart="65.00" id="54">
        <route edges="road_4_0_1 road_4_1_1 road_4_2_1 road_4_3_0"/>
    </vehicle>
    <vehicle depart="65.00" id="55">
        <route edges="road_5_3_2 road_4_3_2 road_3_3_1 road_3_4_1"/>
    </vehicle>
    <vehicle depart="68.00" id="56">
        <route edges="road_0_4_0 road_1_4_3 road_1_3_3 road_1_2_2"/>
    </vehicle>
    <vehicle depart="69.00" id="57">
        <route edges="road_1_0_1 road_1_1_1 road_1_2_1 road_1_3_1 road_1_4_1"/>
    </vehicle>
    <vehicle depart="69.00" id="58">
        <route edges="road_1_5_3 road_1_4_3 road_1_3_2"/>
    </vehicle>
    <vehicle depart="70.00" id="59">
        <route edges="road_0_1_0 road_1_1_0 road_2_1_0 road_3_1_1 road_3_2_1 road_3_3_1 road_3_4_1"/>
    </vehicle>
    <vehicle depart="70.00" id="60">
        <route edges="road_5_4_2 road_4_4_1"/>
    </vehicle>
    <vehicle depart="72.00" id="61">
        <route edges="road_0_4_0 road_1_4_0 road_2_4_3 road_2_3_3 road_2_2_3 road_2_1_3"/>
    </vehicle>
    <vehicle depart="76.00" id="64">
        <route edges="road_0_4_0 road_1_4_0 road_2_4_0 road_3_4_0 road_4_4_0"/>
    </vehicle>
    <vehicle depart="77.00" id="65">
        <route edges="road_5_4_2 road_4_4_2 road_3_4_2 road_2_4_1"/>
    </vehicle>
    <vehicle depart="78.00" id="66">
        <route edges="road_4_0_1 road_4_1_0"/>
    </vehicle>
    <vehicle depart="78.00" id="67">
        <route edges="road_5_3_2 road_4_3_2 road_3_3_2 road_2_3_2 road_1_3_1 road_1_4_0 road_2_4_0 road_3_4_3"/>
    </vehicle>
    <vehicle depart="80.00" id="68">
        <route edges="road_0_1_0 road_1_1_0 road_2_1_3"/>
    </vehicle>
    <vehicle depart="80.00" id="69">
        <route edges="road_0_4_0 road_1_4_1"/>
    </vehicle>
    <vehicle depart="84.00" id="70">
        <route edges="road_5_4_2 road_4_4_2 road_3_4_1"/>
    </vehicle>
    <vehicle depart="84.00" id="71">
        <route edges="road_0_4_0 road_1_4_0 road_2_4_3 road_2_3_2 road_1_3_2"/>
    </vehicle>
    <vehicle depart="88.00" id="72">
        <route edges="road_0_4_0 road_1_4_0 road_2_4_3 road_2_3_0 road_3_3_1 road_3_4_0 road_4_4_0"/>
    </vehicle>
    <vehicle depart="90.00" id="73">
        <route edges="road_0_1_0 road_1_1_0 road_2_1_3"/>
    </vehicle>
    <vehicle depart="91.00" id="74">
        <route edges="road_4_0_1 road_4_1_1 road_4_2_1 road_4_3_0"/>
    </vehicle>
    <vehicle depart="91.00" id="75">
        <route edges="road_5_4_2 road_4_4_1"/>
    </vehicle>
    <vehicle depart="91.00" id="76">
        <route edges="road_5_3_2 road_4_3_2 road_3_3_1 road_3_4_1"/>
    </vehicle>
    <vehicle depart="92.00" id="78">
        <route edges="road_1_5_3 road_1_4_3 road_1_3_2"/>
    </vehicle>
    <vehicle depart="92.00" id="79">
        <route edges="road_0_4_0 road_1_4_3 road_1_3_3 road_1_2_3 road_1_1_3"/>
    </vehicle>
    <vehicle depart="96.00" id="80">
        <route edges="road_0_4_0 road_1_4_3 road_1_3_3 road_1_2_3 road_1_1_2"/>
    </vehicle>
    <vehicle depart="98.00" id="81">
        <route edges="road_5_4_2 road_4_4_2 road_3_4_3 road_3_3_3 road_3_2_2 road_2_2_3 road_2_1_3"/>
    </vehicle>
    <vehicle depart="100.00" id="82">
        <route edges="road_0_1_0 road_1_1_0 road_2_1_0 road_3_1_1 road_3_2_0 road_4_2_0"/>
    </vehicle>
    <vehicle depart="100.00" id="83">
        <route edges="road_0_4_0 road_1_4_0 road_2_4_0 road_3_4_1"/>
    </vehicle>
    <vehicle depart="104.00" id="84">
        <route edges="road_4_0_1 road_4_1_0"/>
    </vehicle>
    <vehicle depart="104.00" id="85">
        <route edges="road_0_4_0 road_1_4_0 road_2_4_0 road_3_4_0 road_4_4_0"/>
    </vehicle>
    <vehicle depart="104.00" id="86">
        <route edges="road_5_3_2 road_4_3_2 road_3_3_1 road_3_4_0"/>
    </vehicle>
    <vehicle depart="105.00" id="87">
        <route edges="road_5_4_2 road_4_4_2 road_3_4_2 road_2_4_1"/>
    </vehicle>
    <vehicle depart="110.00" id="89">
        <route edges="road_0_1_0 road_1_1_0 road_2_1_3"/>
    </vehicle>
    <vehicle depart="111.00" id="90">
        <route edges="road_0_2_0 road_1_2_1 road_1_3_1 road_1_4_0 road_2_4_0 road_3_4_0 road_4_4_0"/>
    </vehicle>
    <vehicle depart="111.00" id="91">
        <route edges="road_5_2_2 road_4_2_2 road_3_2_2 road_2_2_1 road_2_3_1 road_2_4_2 road_1_4_2"/>
    </vehicle>
    <vehicle depart="112.00" id="92">
        <route edges="road_5_4_2 road_4_4_2 road_3_4_2 road_2_4_2 road_1_4_2"/>
    </vehicle>
    <vehicle depart="112.00" id="93">
        <route edges="road_0_4_0 road_1_4_1"/>
    </vehicle>
    <vehicle depart="115.00" id="94">
        <route edges="road_1_0_1 road_1_1_0 road_2_1_0 road_3_1_3"/>
    </vehicle>
    <vehicle depart="115.00" id="95">
        <route edges="road_1_5_3 road_1_4_3 road_1_3_2"/>
    </vehicle>
    <vehicle depart="116.00" id="96">
        <route edges="road_0_4_0 road_1_4_0 road_2_4_0 road_3_4_1"/>
    </vehicle>
    <vehicle depart="117.00" id="97">
        <route edges="road_4_0_1 road_4_1_2 road_3_1_3"/>
    </vehicle>
    <vehicle depart="119.00" id="99">
        <route edges="road_5_4_2 road_4_4_2 road_3_4_2 road_2_4_1"/>
    </vehicle>
    <vehicle depart="120.00" id="100">
        <route edges="road_0_1_0 road_1_1_0 road_2_1_0 road_3_1_0 road_4_1_3"/>
    </vehicle>
    <vehicle depart="120.00" id="101">
        <route edges="road_0_4_0 road_1_4_0 road_2_4_0 road_3_4_3 road_3_3_3 road_3_2_3 road_3_1_2 road_2_1_3"/>
    </vehicle>
    <vehicle depart="124.00" id="102">
        <route edges="road_0_4_0 road_1_4_3 road_1_3_3 road_1_2_3 road_1_1_0 road_2_1_3"/>
    </vehicle>
    <vehicle depart="126.00" id="103">
        <route edges="road_5_4_2 road_4_4_2 road_3_4_2 road_2_4_2 road_1_4_2"/>
    </vehicle>
    <vehicle depart="128.00" id="104">
        <route edges="road_0_4_0 road_1_4_0 road_2_4_0 road_3_4_0 road_4_4_0"/>
    </vehicle>
    <vehicle depart="130.00" id="105">
        <route edges="road_4_0_1 road_4_1_1 road_4_2_0"/>
    </vehicle>
    <vehicle depart="130.00" id="106">
        <route edges="road_0_1_0 road_1_1_3"/>
    </vehicle>
    <vehicle depart="130.00" id="107">
        <route edges="road_5_3_2 road_4_3_3 road_4_2_3 road_4_1_2 road_3_1_2 road_2_1_2 road_1_1_1 road_1_2_1 road_1_3_1 road_1_4_1"/>
    </vehicle>
    <vehicle depart="132.00" id="108">
        <route edges="road_0_4_0 road_1_4_0 road_2_4_0 road_3_4_3 road_3_3_0 road_4_3_0"/>
    </vehicle>
    <vehicle depart="133.00" id="109">
        <route edges="road_5_4_2 road_4_4_2 road_3_4_2 road_2_4_2 road_1_4_1"/>
    </vehicle>
    <vehicle depart="138.00" id="111">
        <route edges="road_1_0_1 road_1_1_1 road_1_2_1 road_1_3_1 road_1_4_1"/>
    </vehicle>
    <vehicle depart="138.00" id="112">
        <route edges="road_1_5_3 road_1_4_2"/>
    </vehicle>
    <vehicle depart="140.00" id="113">
        <route edges="road_0_1_0 road_1_1_0 road_2_1_3"/>
    </vehicle>
    <vehicle depart="140.00" id="114">
        <route edges="road_5_4_2 road_4_4_2 road_3_4_1"/>
    </vehicle>
    <vehicle depart="140.00" id="115">
        <route edges="road_0_4_0 road_1_4_1"/>
    </vehicle>
    <vehicle depart="143.00" id="116">
        <route edges="road_4_0_1 road_4_1_2 road_3_1_2 road_2_1_1 road_2_2_1 road_2_3_1 road_2_4_1"/>
    </vehicle>
    <vehicle depart="143.00" id="117">
        <route edges="road_5_3_2 road_4_3_3 road_4_2_3 road_4_1_2 road_3_1_1 road_3_2_1 road_3_3_1 road_3_4_1"/>
    </vehicle>
    <vehicle depart="144.00" id="118">
        <route edges="road_0_4_0 road_1_4_1"/>
    </vehicle>
    <vehicle depart="147.00" id="119">
        <route edges="road_5_4_2 road_4_4_2 road_3_4_2 road_2_4_1"/>
    </vehicle>
    <vehicle depart="148.00" id="121">
        <route edges="road_5_2_2 road_4_2_2 road_3_2_2 road_2_2_1 road_2_3_0 road_3_3_1 road_3_4_1"/>
    </vehicle>
    <vehicle depart="148.00" id="122">
        <route edges="road_0_4_0 road_1_4_0 road_2_4_0 road_3_4_3 road_3_3_2 road_2_3_1 road_2_4_1"/>
    </vehicle>
    <vehicle depart="154.00" id="125">
        <route edges="road_5_4_2 road_4_4_2 road_3_4_1"/>
    </vehicle>
    <vehicle depart="156.00" id="126">
        <route edges="road_4_0_1 road_4_1_1 road_4_2_0"/>
    </vehicle>
    <vehicle depart="156.00" id="127">
        <route edges="road_0_4_0 road_1_4_3 road_1_3_3 road_1_2_3 road_1_1_0 road_2_1_1 road_2_2_1 road_2_3_0 road_3_3_0 road_4_3_0"/>
    </vehicle>
    <vehicle depart="156.00" id="128">
        <route edges="road_5_3_2 road_4_3_2 road_3_3_2 road_2_3_2 road_1_3_2"/>
    </vehicle>
    <vehicle depart="160.00" id="129">
        <route edges="road_0_1_0 road_1_1_3"/>
    </vehicle>
    <vehicle depart="160.00" id="130">
        <route edges="road_0_4_0 road_1_4_1"/>
    </vehicle>
    <vehicle depart="161.00" id="131">
        <route edges="road_5_4_2 road_4_4_2 road_3_4_2 road_2_4_1"/>
    </vehicle>
    <vehicle depart="161.00" id="132">
        <route edges="road_1_0_1 road_1_1_1 road_1_2_1 road_1_3_1 road_1_4_0 road_2_4_3 road_2_3_3 road_2_2_3 road_2_1_3"/>
    </vehicle>
    <vehicle depart="161.00" id="133">
        <route edges="road_1_5_3 road_1_4_3 road_1_3_3 road_1_2_3 road_1_1_3"/>
    </vehicle>
    <vehicle depart="164.00" id="134">
        <route edges="road_0_4_0 road_1_4_0 road_2_4_3 road_2_3_2 road_1_3_2"/>
    </vehicle>
    <vehicle depart="168.00" id="135">
        <route edges="road_5_4_2 road_4_4_2 road_3_4_1"/>
    </vehicle>
    <vehicle depart="168.00" id="136">
        <route edges="road_0_4_0 road_1_4_0 road_2_4_1"/>
    </vehicle>
    <vehicle depart="169.00" id="137">
        <route edges="road_4_0_1 road_4_1_2 road_3_1_1 road_3_2_0 road_4_2_3 road_4_1_3"/>
    </vehicle>
    <vehicle depart="169.00" id="138">
        <route edges="road_5_3_2 road_4_3_2 road_3_3_1 road_3_4_1"/>
    </vehicle>
    <vehicle depart="170.00" id="139">
        <route edges="road_0_1_0 road_1_1_3"/>
    </vehicle>
    <vehicle depart="172.00" id="140">
        <route edges="road_0_4_0 road_1_4_3 road_1_3_3 road_1_2_2"/>
    </vehicle>
    <vehicle depart="175.00" id="141">
        <route edges="road_5_4_2 road_4_4_1"/>
    </vehicle>
    <vehicle depart="176.00" id="142">
        <route edges="road_0_4_0 road_1_4_3 road_1_3_3 road_1_2_3 road_1_1_2"/>
    </vehicle>
    <vehicle depart="180.00" id="143">
        <route edges="road_0_1_0 road_1_1_0 road_2_1_0 road_3_1_0 road_4_1_1 road_4_2_0"/>
    </vehicle>
    <vehicle depart="180.00" id="144">
        <route edges="road_0_4_0 road_1_4_0 road_2_4_0 road_3_4_0 road_4_4_0"/>
    </vehicle>
    <vehicle depart="182.00" id="145">
        <route edges="road_4_0_1 road_4_1_0"/>
    </vehicle>
    <vehicle depart="184.00" id="148">
        <route edges="road_1_0_1 road_1_1_0 road_2_1_0 road_3_1_0 road_4_1_3"/>
    </vehicle>
    <vehicle depart="184.00" id="149">
        <route edges="road_1_5_3 road_1_4_3 road_1_3_2"/>
    </vehicle>
    <vehicle depart="185.00" id="152">
        <route edges="road_5_2_2 road_4_2_2 road_3_2_2 road_2_2_1 road_2_3_1 road_2_4_0 road_3_4_3 road_3_3_3"/>
    </vehicle>
    <vehicle depart="188.00" id="153">
        <route edges="road_0_4_0 road_1_4_0 road_2_4_3 road_2_3_2 road_1_3_2"/>
    </vehicle>
    <vehicle depart="189.00" id="154">
        <route edges="road_5_4_2 road_4_4_1"/>
    </vehicle>
    <vehicle depart="190.00" id="155">
        <route edges="road_0_1_0 road_1_1_3"/>
    </vehicle>
    <vehicle depart="192.00" id="156">
        <route edges="road_0_4_0 road_1_4_3 road_1_3_2"/>
    </vehicle>
    <vehicle depart="195.00" id="157">
        <route edges="road_4_0_1 road_4_1_1 road_4_2_1 road_4_3_0"/>
    </vehicle>
    <vehicle depart="196.00" id="159">
        <route edges="road_5_4_2 road_4_4_2 road_3_4_1"/>
    </vehicle>
    <vehicle depart="196.00" id="160">
        <route edges="road_0_4_0 road_1_4_0 road_2_4_1"/>
    </vehicle>
    <vehicle depart="200.00" id="161">
        <route edges="road_0_1_0 road_1_1_0 road_2_1_0 road_3_1_0 road_4_1_0"/>
    </vehicle>
    <vehicle depart="200.00" id="162">
        <route edges="road_0_4_0 road_1_4_3 road_1_3_3 road_1_2_3 road_1_1_0 road_2_1_0 road_3_1_0 road_4_1_3"/>
    </vehicle>
    <vehicle depart="203.00" id="163">
        <route edges="road_5_4_2 road_4_4_2 road_3_4_2 road_2_4_1"/>
    </vehicle>
    <vehicle depart="204.00" id="164">
        <route edges="road_0_4_0 road_1_4_1"/>
    </vehicle>
    <vehicle depart="207.00" id="166">
        <route edges="road_1_5_3 road_1_4_3 road_1_3_3 road_1_2_3 road_1_1_0 road_2_1_1 road_2_2_1 road_2_3_1 road_2_4_0 road_3_4_1"/>
    </vehicle>
    <vehicle depart="208.00" id="168">
        <route edges="road_0_4_0 road_1_4_0 road_2_4_0 road_3_4_0 road_4_4_0"/>
    </vehicle>
    <vehicle depart="210.00" id="170">
        <route edges="road_0_1_0 road_1_1_3"/>
    </vehicle>
    <vehicle depart="210.00" id="171">
        <route edges="road_5_4_2 road_4_4_2 road_3_4_2 road_2_4_2 road_1_4_2"/>
    </vehicle>
    <vehicle depart="212.00" id="172">
        <route edges="road_0_4_0 road_1_4_3 road_1_3_3 road_1_2_3 road_1_1_3"/>
    </vehicle>
    <vehicle depart="216.00" id="173">
        <route edges="road_0_4_0 road_1_4_3 road_1_3_3 road_1_2_3 road_1_1_3"/>
    </vehicle>
    <vehicle depart="217.00" id="174">
        <route edges="road_5_4_2 road_4_4_2 road_3_4_2 road_2_4_2 road_1_4_2"/>
    </vehicle>
    <vehicle depart="220.00" id="175">
        <route edges="road_0_1_0 road_1_1_0 road_2_1_0 road_3_1_0 road_4_1_0"/>
    </vehicle>
    <vehicle depart="222.00" id="179">
        <route edges="road_0_2_0 road_1_2_3 road_1_1_3"/>
    </vehicle>
    <vehicle depart="222.00" id="180">
        <route edges="road_5_2_2 road_4_2_2 road_3_2_1 road_3_3_0 road_4_3_3 road_4_2_3 road_4_1_2 road_3_1_1 road_3_2_0"/>
    </vehicle>
    <vehicle depart="224.00" id="182">
        <route edges="road_0_4_0 road_1_4_0 road_2_4_3 road_2_3_2 road_1_3_2"/>
    </vehicle>
    <vehicle depart="228.00" id="183">
        <route edges="road_0_4_0 road_1_4_3 road_1_3_0 road_2_3_3 road_2_2_3 road_2_1_3"/>
    </vehicle>
    <vehicle depart="230.00" id="184">
        <route edges="road_0_1_0 road_1_1_0 road_2_1_0 road_3_1_0 road_4_1_0"/>
    </vehicle>
    <vehicle depart="230.00" id="185">
        <route edges="road_1_0_1 road_1_1_1 road_1_2_1 road_1_3_1 road_1_4_1"/>
    </vehicle>
    <vehicle depart="230.00" id="186">
        <route edges="road_1_5_3 road_1_4_0 road_2_4_0 road_3_4_3 road_3_3_2 road_2_3_2 road_1_3_2"/>
    </vehicle>
    <vehicle depart="231.00" id="187">
        <route edges="road_5_4_2 road_4_4_2 road_3_4_2 road_2_4_1"/>
    </vehicle>
    <vehicle depart="232.00" id="188">
        <route edges="road_0_4_0 road_1_4_0 road_2_4_0 road_3_4_0 road_4_4_1"/>
    </vehicle>
    <vehicle depart="236.00" id="191">
        <route edges="road_0_4_0 road_1_4_0 road_2_4_3 road_2_3_2 road_1_3_2"/>
    </vehicle>
    <vehicle depart="238.00" id="192">
        <route edges="road_5_4_2 road_4_4_1"/>
    </vehicle>
    <vehicle depart="240.00" id="193">
        <route edges="road_0_1_0 road_1_1_3"/>
    </vehicle>
    <vehicle depart="240.00" id="194">
        <route edges="road_0_4_0 road_1_4_0 road_2_4_0 road_3_4_0 road_4_4_0"/>
    </vehicle>
    <vehicle depart="244.00" id="195">
        <route edges="road_0_4_0 road_1_4_1"/>
    </vehicle>
    <vehicle depart="245.00" id="196">
        <route edges="road_5_4_2 road_4_4_1"/>
    </vehicle>
    <vehicle depart="247.00" id="198">
        <route edges="road_5_3_2 road_4_3_2 road_3_3_2 road_2_3_2 road_1_3_1 road_1_4_1"/>
    </vehicle>
    <vehicle depart="248.00" id="199">
        <route edges="road_0_4_0 road_1_4_0 road_2_4_0 road_3_4_1"/>
    </vehicle>
    <vehicle depart="250.00" id="200">
        <route edges="road_0_1_0 road_1_1_0 road_2_1_0 road_3_1_0 road_4_1_0"/>
    </vehicle>
    <vehicle depart="252.00" id="201">
        <route edges="road_5_4_2 road_4_4_1"/>
    </vehicle>
    <vehicle depart="252.00" id="202">
        <route edges="road_0_4_0 road_1_4_0 road_2_4_0 road_3_4_0 road_4_4_0"/>
    </vehicle>
    <vehicle depart="253.00" id="203">
        <route edges="road_1_0_1 road_1_1_1 road_1_2_1 road_1_3_1 road_1_4_1"/>
    </vehicle>
    <vehicle depart="253.00" id="204">
        <route edges="road_1_5_3 road_1_4_3 road_1_3_2"/>
    </vehicle>
    <vehicle depart="256.00" id="205">
        <route edges="road_0_4_0 road_1_4_0 road_2_4_3 road_2_3_3 road_2_2_3 road_2_1_3"/>
    </vehicle>
    <vehicle depart="259.00" id="206">
        <route edges="road_5_4_2 road_4_4_2 road_3_4_2 road_2_4_3 road_2_3_2 road_1_3_2"/>
    </vehicle>
    <vehicle depart="260.00" id="209">
        <route edges="road_4_0_1 road_4_1_0"/>
    </vehicle>
    <vehicle depart="260.00" id="210">
        <route edges="road_0_1_0 road_1_1_0 road_2_1_0 road_3_1_0 road_4_1_3"/>
    </vehicle>
    <vehicle depart="260.00" id="211">
        <route edges="road_0_4_0 road_1_4_0 road_2_4_0 road_3_4_0 road_4_4_0"/>
    </vehicle>
    <vehicle depart="260.00" id="212">
        <route edges="road_5_3_2 road_4_3_2 road_3_3_1 road_3_4_1"/>
    </vehicle>
    <vehicle depart="264.00" id="213">
        <route edges="road_0_4_0 road_1_4_1"/>
    </vehicle>
    <vehicle depart="266.00" id="214">
        <route edges="road_5_4_2 road_4_4_1"/>
    </vehicle>
    <vehicle depart="268.00" id="215">
        <route edges="road_0_4_0 road_1_4_3 road_1_3_3 road_1_2_2"/>
    </vehicle>
    <vehicle depart="270.00" id="216">
        <route edges="road_0_1_0 road_1_1_0 road_2_1_3"/>
    </vehicle>
    <vehicle depart="272.00" id="217">
        <route edges="road_0_4_0 road_1_4_3 road_1_3_3 road_1_2_3 road_1_1_3"/>
    </vehicle>
    <vehicle depart="273.00" id="218">
        <route edges="road_4_0_1 road_4_1_1 road_4_2_0"/>
    </vehicle>
    <vehicle depart="273.00" id="219">
        <route edges="road_5_4_2 road_4_4_1"/>
    </vehicle>
    <vehicle depart="276.00" id="221">
        <route edges="road_1_0_1 road_1_1_0 road_2_1_3"/>
    </vehicle>
    <vehicle depart="276.00" id="222">
        <route edges="road_1_5_3 road_1_4_3 road_1_3_3 road_1_2_3 road_1_1_2"/>
    </vehicle>
    <vehicle depart="280.00" id="224">
        <route edges="road_0_1_0 road_1_1_0 road_2_1_0 road_3_1_0 road_4_1_0"/>
    </vehicle>
    <vehicle depart="280.00" id="225">
        <route edges="road_5_4_2 road_4_4_1"/>
    </vehicle>
    <vehicle depart="280.00" id="226">
        <route edges="road_0_4_0 road_1_4_0 road_2_4_0 road_3_4_3 road_3_3_3 road_3_2_3 road_3_1_2 road_2_1_2 road_1_1_2"/>
    </vehicle>
    <vehicle depart="284.00" id="227">
        <route edges="road_0_4_0 road_1_4_3 road_1_3_3 road_1_2_3 road_1_1_3"/>
    </vehicle>
    <vehicle depart="286.00" id="228">
        <route edges="road_4_0_1 road_4_1_1 road_4_2_1 road_4_3_0"/>
    </vehicle>
    <vehicle depart="286.00" id="229">
        <route edges="road_5_3_2 road_4_3_2 road_3_3_2 road_2_3_2 road_1_3_2"/>
    </vehicle>
    <vehicle depart="287.00" id="230">
        <route edges="road_5_4_2 road_4_4_2 road_3_4_2 road_2_4_2 road_1_4_1"/>
    </vehicle>
    <vehicle depart="290.00" id="232">
        <route edges="road_0_1_0 road_1_1_3"/>
    </vehicle>
    <vehicle depart="292.00" id="233">
        <route edges="road_0_4_0 road_1_4_0 road_2_4_0 road_3_4_3 road_3_3_3 road_3_2_3 road_3_1_3"/>
    </vehicle>
    <vehicle depart="294.00" id="234">
        <route edges="road_5_4_2 road_4_4_2 road_3_4_1"/>
    </vehicle>
    <vehicle depart="296.00" id="236">
        <route edges="road_5_2_2 road_4_2_2 road_3_2_1 road_3_3_1 road_3_4_0 road_4_4_0"/>
    </vehicle>
    <vehicle depart="296.00" id="237">
        <route edges="road_0_4_0 road_1_4_0 road_2_4_0 road_3_4_3 road_3_3_3 road_3_2_3 road_3_1_2 road_2_1_1 road_2_2_0"/>
    </vehicle>
    <vehicle depart="299.00" id="238">
        <route edges="road_4_0_1 road_4_1_1 road_4_2_1 road_4_3_0"/>
    </vehicle>
    <vehicle depart="299.00" id="239">
        <route edges="road_1_0_1 road_1_1_0 road_2_1_0 road_3_1_0 road_4_1_3"/>
    </vehicle>
    <vehicle depart="299.00" id="240">
        <route edges="road_1_5_3 road_1_4_2"/>
    </vehicle>
    <vehicle depart="299.00" id="241">
        <route edges="road_5_3_2 road_4_3_2 road_3_3_2 road_2_3_1 road_2_4_1"/>
    </vehicle>
    <vehicle depart="300.00" id="242">
        <route edges="road_4_0_1 road_4_1_1 road_4_2_0"/>
    </vehicle>
    <vehicle depart="300.00" id="243">
        <route edges="road_0_1_0 road_1_1_0 road_2_1_3"/>
    </vehicle>
    <vehicle depart="300.00" id="244">
        <route edges="road_5_4_2 road_4_4_2 road_3_4_2 road_2_4_1"/>
    </vehicle>
    <vehicle depart="300.00" id="246">
        <route edges="road_5_2_2 road_4_2_2 road_3_2_2 road_2_2_1 road_2_3_1 road_2_4_1"/>
    </vehicle>
    <vehicle depart="300.00" id="247">
        <route edges="road_1_0_1 road_1_1_2"/>
    </vehicle>
    <vehicle depart="300.00" id="248">
        <route edges="road_1_5_3 road_1_4_2"/>
    </vehicle>
    <vehicle depart="300.00" id="249">
        <route edges="road_0_4_0 road_1_4_3 road_1_3_3 road_1_2_2"/>
    </vehicle>
    <vehicle depart="300.00" id="250">
        <route edges="road_5_3_2 road_4_3_2 road_3_3_2 road_2_3_2 road_1_3_3 road_1_2_3 road_1_1_0 road_2_1_0 road_3_1_3"/>
    </vehicle>
    <vehicle depart="306.00" id="252">
        <route edges="road_0_1_0 road_1_1_0 road_2_1_0 road_3_1_3"/>
    </vehicle>
    <vehicle depart="306.00" id="253">
        <route edges="road_5_4_2 road_4_4_2 road_3_4_3 road_3_3_3 road_3_2_3 road_3_1_3"/>
    </vehicle>
    <vehicle depart="310.00" id="254">
        <route edges="road_0_4_0 road_1_4_0 road_2_4_0 road_3_4_0 road_4_4_0"/>
    </vehicle>
    <vehicle depart="312.00" id="255">
        <route edges="road_0_1_0 road_1_1_1 road_1_2_1 road_1_3_0 road_2_3_0 road_3_3_0 road_4_3_3 road_4_2_3 road_4_1_2 road_3_1_2 road_2_1_1 road_2_2_1"/>
    </vehicle>
    <vehicle depart="312.00" id="256">
        <route edges="road_5_4_2 road_4_4_2 road_3_4_2 road_2_4_2 road_1_4_2"/>
    </vehicle>
    <vehicle depart="314.00" id="257">
        <route edges="road_0_2_0 road_1_2_1 road_1_3_1 road_1_4_1"/>
    </vehicle>
    <vehicle depart="314.00" id="258">
        <route edges="road_5_2_2 road_4_2_3 road_4_1_3"/>
    </vehicle>
    <vehicle depart="317.00" id="260">
        <route edges="road_1_0_1 road_1_1_0 road_2_1_0 road_3_1_0 road_4_1_3"/>
    </vehicle>
    <vehicle depart="317.00" id="261">
        <route edges="road_1_5_3 road_1_4_2"/>
    </vehicle>
    <vehicle depart="318.00" id="264">
        <route edges="road_5_4_2 road_4_4_1"/>
    </vehicle>
    <vehicle depart="323.00" id="266">
        <route edges="road_4_0_1 road_4_1_0"/>
    </vehicle>
    <vehicle depart="324.00" id="267">
        <route edges="road_0_1_0 road_1_1_3"/>
    </vehicle>
    <vehicle depart="324.00" id="268">
        <route edges="road_5_4_2 road_4_4_2 road_3_4_1"/>
    </vehicle>
    <vehicle depart="325.00" id="269">
        <route edges="road_0_4_0 road_1_4_0 road_2_4_0 road_3_4_0 road_4_4_1"/>
    </vehicle>
    <vehicle depart="330.00" id="272">
        <route edges="road_0_1_0 road_1_1_3"/>
    </vehicle>
    <vehicle depart="330.00" id="273">
        <route edges="road_5_4_2 road_4_4_1"/>
    </vehicle>
    <vehicle depart="330.00" id="274">
        <route edges="road_0_4_0 road_1_4_3 road_1_3_3 road_1_2_2"/>
    </vehicle>
    <vehicle depart="334.00" id="275">
        <route edges="road_1_0_1 road_1_1_1 road_1_2_2"/>
    </vehicle>
    <vehicle depart="334.00" id="276">
        <route edges="road_1_5_3 road_1_4_3 road_1_3_2"/>
    </vehicle>
    <vehicle depart="334.00" id="277">
        <route edges="road_5_3_2 road_4_3_2 road_3_3_1 road_3_4_0 road_4_4_0"/>
    </vehicle>
    <vehicle depart="335.00" id="278">
        <route edges="road_0_4_0 road_1_4_0 road_2_4_3 road_2_3_2 road_1_3_1 road_1_4_1"/>
    </vehicle>
    <vehicle depart="336.00" id="279">
        <route edges="road_0_1_0 road_1_1_0 road_2_1_0 road_3_1_3"/>
    </vehicle>
    <vehicle depart="336.00" id="280">
        <route edges="road_5_4_2 road_4_4_2 road_3_4_2 road_2_4_2 road_1_4_2"/>
    </vehicle>
    <vehicle depart="340.00" id="281">
        <route edges="road_0_4_0 road_1_4_0 road_2_4_1"/>
    </vehicle>
    <vehicle depart="342.00" id="282">
        <route edges="road_0_1_0 road_1_1_0 road_2_1_0 road_3_1_3"/>