<?xml version="1.0" encoding="UTF-8"?>

<!-- generated on 2022-10-19 18:28:37 by Eclipse SUMO netconvert Version 1.13.0
<configuration xmlns:xsi="http://www.w3.org/2001/XMLSchema-instance" xsi:noNamespaceSchemaLocation="http://sumo.dlr.de/xsd/netconvertConfiguration.xsd">

    <input>
        <node-files value="/home/lxl/LibSignal/main_cp/LibSignal/data/raw_data/hangzhou_4x4_gudang_18041610_1h/hangzhou_4x4_gudang_18041610_1h.nod.xml"/>
        <edge-files value="/home/lxl/LibSignal/main_cp/LibSignal/data/raw_data/hangzhou_4x4_gudang_18041610_1h/hangzhou_4x4_gudang_18041610_1h.edg.xml"/>
        <connection-files value="/home/lxl/LibSignal/main_cp/LibSignal/data/raw_data/hangzhou_4x4_gudang_18041610_1h/hangzhou_4x4_gudang_18041610_1h.con.xml"/>
        <tllogic-files value="/home/lxl/LibSignal/main_cp/LibSignal/data/raw_data/hangzhou_4x4_gudang_18041610_1h/hangzhou_4x4_gudang_18041610_1h.tll.xml"/>
    </input>

    <output>
        <output-file value="/home/lxl/LibSignal/main_cp/LibSignal/data/raw_data/hangzhou_4x4_gudang_18041610_1h/hangzhou_4x4_gudang_18041610_1h.net.xml"/>
    </output>

    <report>
        <aggregate-warnings value="5"/>
    </report>

</configuration>
-->

<net version="1.9" junctionCornerDetail="5" limitTurnSpeed="5.50" xmlns:xsi="http://www.w3.org/2001/XMLSchema-instance" xsi:noNamespaceSchemaLocation="http://sumo.dlr.de/xsd/net_file.xsd">

    <location netOffset="800.00,600.00" convBoundary="0.00,0.00,4000.00,3000.00" origBoundary="-800.00,-600.00,3200.00,2400.00" projParameter="!"/>

    <edge id=":intersection_0_1_0" function="internal">
        <lane id=":intersection_0_1_0_0" index="0" speed="3.65" length="4.67" shape="0.00,601.60 -1.20,600.80 -1.60,600.00 -1.20,599.20 0.00,598.40"/>
    </edge>
    <edge id=":intersection_0_2_0" function="internal">
        <lane id=":intersection_0_2_0_0" index="0" speed="3.65" length="4.67" shape="0.00,1201.60 -1.20,1200.80 -1.60,1200.00 -1.20,1199.20 0.00,1198.40"/>
    </edge>
    <edge id=":intersection_0_3_0" function="internal">
        <lane id=":intersection_0_3_0_0" index="0" speed="3.65" length="4.67" shape="0.00,1801.60 -1.20,1800.80 -1.60,1800.00 -1.20,1799.20 0.00,1798.40"/>
    </edge>
    <edge id=":intersection_0_4_0" function="internal">
        <lane id=":intersection_0_4_0_0" index="0" speed="3.65" length="4.67" shape="0.00,2401.60 -1.20,2400.80 -1.60,2400.00 -1.20,2399.20 0.00,2398.40"/>
    </edge>
    <edge id=":intersection_1_0_0" function="internal">
        <lane id=":intersection_1_0_0_0" index="0" speed="3.65" length="4.67" shape="798.40,0.00 799.20,-1.20 800.00,-1.60 800.80,-1.20 801.60,0.00"/>
    </edge>
    <edge id=":intersection_1_1_0" function="internal">
        <lane id=":intersection_1_1_0_0" index="0" speed="6.51" length="9.03" shape="792.00,613.60 791.65,611.15 790.60,609.40 788.85,608.35 786.40,608.00"/>
        <lane id=":intersection_1_1_0_1" index="1" speed="7.33" length="11.73" shape="792.00,613.60 791.65,609.75 790.60,607.00 788.85,605.35 786.40,604.80"/>
        <lane id=":intersection_1_1_0_2" index="2" speed="8.10" length="14.57" shape="792.00,613.60 791.65,608.35 790.60,604.60 788.85,602.35 786.40,601.60"/>
    </edge>
    <edge id=":intersection_1_1_3" function="internal">
        <lane id=":intersection_1_1_3_0" index="0" speed="11.11" length="27.37" shape="795.20,613.60 794.70,605.50 793.60,600.00 792.50,594.50 792.00,586.40"/>
        <lane id=":intersection_1_1_3_1" index="1" speed="11.11" length="27.37" shape="795.20,613.60 795.20,586.40"/>
        <lane id=":intersection_1_1_3_2" index="2" speed="11.11" length="27.37" shape="795.20,613.60 795.70,605.50 796.80,600.00 797.90,594.50 798.40,586.40"/>
    </edge>
    <edge id=":intersection_1_1_6" function="internal">
        <lane id=":intersection_1_1_6_0" index="0" speed="11.11" length="29.85" shape="798.40,613.60 799.35,604.15 802.20,597.40 806.95,593.35 813.60,592.00"/>
        <lane id=":intersection_1_1_6_1" index="1" speed="10.88" length="27.14" shape="798.40,613.60 799.35,605.55 802.20,599.80 806.95,596.35 813.60,595.20"/>
        <lane id=":intersection_1_1_6_2" index="2" speed="10.36" length="24.51" shape="798.40,613.60 799.35,606.95 802.20,602.20 806.95,599.35 813.60,598.40"/>
    </edge>
    <edge id=":intersection_1_1_9" function="internal">
        <lane id=":intersection_1_1_9_0" index="0" speed="6.51" length="9.03" shape="813.60,608.00 811.15,608.35 809.40,609.40 808.35,611.15 808.00,613.60"/>
        <lane id=":intersection_1_1_9_1" index="1" speed="7.33" length="11.73" shape="813.60,608.00 809.75,608.35 807.00,609.40 805.35,611.15 804.80,613.60"/>
        <lane id=":intersection_1_1_9_2" index="2" speed="8.10" length="14.57" shape="813.60,608.00 808.35,608.35 804.60,609.40 802.35,611.15 801.60,613.60"/>
    </edge>
    <edge id=":intersection_1_1_12" function="internal">
        <lane id=":intersection_1_1_12_0" index="0" speed="11.11" length="27.37" shape="813.60,604.80 805.50,605.30 800.00,606.40 794.50,607.50 786.40,608.00"/>
        <lane id=":intersection_1_1_12_1" index="1" speed="11.11" length="27.37" shape="813.60,604.80 786.40,604.80"/>
        <lane id=":intersection_1_1_12_2" index="2" speed="11.11" length="27.37" shape="813.60,604.80 805.50,604.30 800.00,603.20 794.50,602.10 786.40,601.60"/>
    </edge>
    <edge id=":intersection_1_1_15" function="internal">
        <lane id=":intersection_1_1_15_0" index="0" speed="11.11" length="29.85" shape="813.60,601.60 804.15,600.65 797.40,597.80 793.35,593.05 792.00,586.40"/>
        <lane id=":intersection_1_1_15_1" index="1" speed="10.88" length="27.14" shape="813.60,601.60 805.55,600.65 799.80,597.80 796.35,593.05 795.20,586.40"/>
        <lane id=":intersection_1_1_15_2" index="2" speed="10.36" length="24.51" shape="813.60,601.60 806.95,600.65 802.20,597.80 799.35,593.05 798.40,586.40"/>
    </edge>
    <edge id=":intersection_1_1_18" function="internal">
        <lane id=":intersection_1_1_18_0" index="0" speed="6.51" length="9.03" shape="808.00,586.40 808.35,588.85 809.40,590.60 811.15,591.65 813.60,592.00"/>
        <lane id=":intersection_1_1_18_1" index="1" speed="7.33" length="11.73" shape="808.00,586.40 808.35,590.25 809.40,593.00 811.15,594.65 813.60,595.20"/>
        <lane id=":intersection_1_1_18_2" index="2" speed="8.10" length="14.57" shape="808.00,586.40 808.35,591.65 809.40,595.40 811.15,597.65 813.60,598.40"/>
    </edge>
    <edge id=":intersection_1_1_21" function="internal">
        <lane id=":intersection_1_1_21_0" index="0" speed="11.11" length="27.37" shape="804.80,586.40 805.30,594.50 806.40,600.00 807.50,605.50 808.00,613.60"/>
        <lane id=":intersection_1_1_21_1" index="1" speed="11.11" length="27.37" shape="804.80,586.40 804.80,613.60"/>
        <lane id=":intersection_1_1_21_2" index="2" speed="11.11" length="27.37" shape="804.80,586.40 804.30,594.50 803.20,600.00 802.10,605.50 801.60,613.60"/>
    </edge>
    <edge id=":intersection_1_1_24" function="internal">
        <lane id=":intersection_1_1_24_0" index="0" speed="11.11" length="29.85" shape="801.60,586.40 800.65,595.85 797.80,602.60 793.05,606.65 786.40,608.00"/>
        <lane id=":intersection_1_1_24_1" index="1" speed="10.88" length="27.14" shape="801.60,586.40 800.65,594.45 797.80,600.20 793.05,603.65 786.40,604.80"/>
        <lane id=":intersection_1_1_24_2" index="2" speed="10.36" length="24.51" shape="801.60,586.40 800.65,593.05 797.80,597.80 793.05,600.65 786.40,601.60"/>
    </edge>
    <edge id=":intersection_1_1_27" function="internal">
        <lane id=":intersection_1_1_27_0" index="0" speed="6.51" length="9.03" shape="786.40,592.00 788.85,591.65 790.60,590.60 791.65,588.85 792.00,586.40"/>
        <lane id=":intersection_1_1_27_1" index="1" speed="7.33" length="11.73" shape="786.40,592.00 790.25,591.65 793.00,590.60 794.65,588.85 795.20,586.40"/>
        <lane id=":intersection_1_1_27_2" index="2" speed="8.10" length="14.57" shape="786.40,592.00 791.65,591.65 795.40,590.60 797.65,588.85 798.40,586.40"/>
    </edge>
    <edge id=":intersection_1_1_30" function="internal">
        <lane id=":intersection_1_1_30_0" index="0" speed="11.11" length="27.37" shape="786.40,595.20 794.50,594.70 800.00,593.60 805.50,592.50 813.60,592.00"/>
        <lane id=":intersection_1_1_30_1" index="1" speed="11.11" length="27.37" shape="786.40,595.20 813.60,595.20"/>
        <lane id=":intersection_1_1_30_2" index="2" speed="11.11" length="27.37" shape="786.40,595.20 794.50,595.70 800.00,596.80 805.50,597.90 813.60,598.40"/>
    </edge>
    <edge id=":intersection_1_1_33" function="internal">
        <lane id=":intersection_1_1_33_0" index="0" speed="11.11" length="29.85" shape="786.40,598.40 795.85,599.35 802.60,602.20 806.65,606.95 808.00,613.60"/>
        <lane id=":intersection_1_1_33_1" index="1" speed="10.88" length="27.14" shape="786.40,598.40 794.45,599.35 800.20,602.20 803.65,606.95 804.80,613.60"/>
        <lane id=":intersection_1_1_33_2" index="2" speed="10.36" length="24.51" shape="786.40,598.40 793.05,599.35 797.80,602.20 800.65,606.95 801.60,613.60"/>
    </edge>
    <edge id=":intersection_1_2_0" function="internal">
        <lane id=":intersection_1_2_0_0" index="0" speed="6.51" length="9.03" shape="792.00,1213.60 791.65,1211.15 790.60,1209.40 788.85,1208.35 786.40,1208.00"/>
        <lane id=":intersection_1_2_0_1" index="1" speed="7.33" length="11.73" shape="792.00,1213.60 791.65,1209.75 790.60,1207.00 788.85,1205.35 786.40,1204.80"/>
        <lane id=":intersection_1_2_0_2" index="2" speed="8.10" length="14.57" shape="792.00,1213.60 791.65,1208.35 790.60,1204.60 788.85,1202.35 786.40,1201.60"/>
    </edge>
    <edge id=":intersection_1_2_3" function="internal">
        <lane id=":intersection_1_2_3_0" index="0" speed="11.11" length="27.37" shape="795.20,1213.60 794.70,1205.50 793.60,1200.00 792.50,1194.50 792.00,1186.40"/>
        <lane id=":intersection_1_2_3_1" index="1" speed="11.11" length="27.37" shape="795.20,1213.60 795.20,1186.40"/>
        <lane id=":intersection_1_2_3_2" index="2" speed="11.11" length="27.37" shape="795.20,1213.60 795.70,1205.50 796.80,1200.00 797.90,1194.50 798.40,1186.40"/>
    </edge>
    <edge id=":intersection_1_2_6" function="internal">
        <lane id=":intersection_1_2_6_0" index="0" speed="11.11" length="29.85" shape="798.40,1213.60 799.35,1204.15 802.20,1197.40 806.95,1193.35 813.60,1192.00"/>
        <lane id=":intersection_1_2_6_1" index="1" speed="10.88" length="27.14" shape="798.40,1213.60 799.35,1205.55 802.20,1199.80 806.95,1196.35 813.60,1195.20"/>
        <lane id=":intersection_1_2_6_2" index="2" speed="10.36" length="24.51" shape="798.40,1213.60 799.35,1206.95 802.20,1202.20 806.95,1199.35 813.60,1198.40"/>
    </edge>
    <edge id=":intersection_1_2_9" function="internal">
        <lane id=":intersection_1_2_9_0" index="0" speed="6.51" length="9.03" shape="813.60,1208.00 811.15,1208.35 809.40,1209.40 808.35,1211.15 808.00,1213.60"/>
        <lane id=":intersection_1_2_9_1" index="1" speed="7.33" length="11.73" shape="813.60,1208.00 809.75,1208.35 807.00,1209.40 805.35,1211.15 804.80,1213.60"/>
        <lane id=":intersection_1_2_9_2" index="2" speed="8.10" length="14.57" shape="813.60,1208.00 808.35,1208.35 804.60,1209.40 802.35,1211.15 801.60,1213.60"/>
    </edge>
    <edge id=":intersection_1_2_12" function="internal">
        <lane id=":intersection_1_2_12_0" index="0" speed="11.11" length="27.37" shape="813.60,1204.80 805.50,1205.30 800.00,1206.40 794.50,1207.50 786.40,1208.00"/>
        <lane id=":intersection_1_2_12_1" index="1" speed="11.11" length="27.37" shape="813.60,1204.80 786.40,1204.80"/>
        <lane id=":intersection_1_2_12_2" index="2" speed="11.11" length="27.37" shape="813.60,1204.80 805.50,1204.30 800.00,1203.20 794.50,1202.10 786.40,1201.60"/>
    </edge>
    <edge id=":intersection_1_2_15" function="internal">
        <lane id=":intersection_1_2_15_0" index="0" speed="11.11" length="29.85" shape="813.60,1201.60 804.15,1200.65 797.40,1197.80 793.35,1193.05 792.00,1186.40"/>
        <lane id=":intersection_1_2_15_1" index="1" speed="10.88" length="27.14" shape="813.60,1201.60 805.55,1200.65 799.80,1197.80 796.35,1193.05 795.20,1186.40"/>
        <lane id=":intersection_1_2_15_2" index="2" speed="10.36" length="24.51" shape="813.60,1201.60 806.95,1200.65 802.20,1197.80 799.35,1193.05 798.40,1186.40"/>
    </edge>
    <edge id=":intersection_1_2_18" function="internal">
        <lane id=":intersection_1_2_18_0" index="0" speed="6.51" length="9.03" shape="808.00,1186.40 808.35,1188.85 809.40,1190.60 811.15,1191.65 813.60,1192.00"/>
        <lane id=":intersection_1_2_18_1" index="1" speed="7.33" length="11.73" shape="808.00,1186.40 808.35,1190.25 809.40,1193.00 811.15,1194.65 813.60,1195.20"/>
        <lane id=":intersection_1_2_18_2" index="2" speed="8.10" length="14.57" shape="808.00,1186.40 808.35,1191.65 809.40,1195.40 811.15,1197.65 813.60,1198.40"/>
    </edge>
    <edge id=":intersection_1_2_21" function="internal">
        <lane id=":intersection_1_2_21_0" index="0" speed="11.11" length="27.37" shape="804.80,1186.40 805.30,1194.50 806.40,1200.00 807.50,1205.50 808.00,1213.60"/>
        <lane id=":intersection_1_2_21_1" index="1" speed="11.11" length="27.37" shape="804.80,1186.40 804.80,1213.60"/>
        <lane id=":intersection_1_2_21_2" index="2" speed="11.11" length="27.37" shape="804.80,1186.40 804.30,1194.50 803.20,1200.00 802.10,1205.50 801.60,1213.60"/>
    </edge>
    <edge id=":intersection_1_2_24" function="internal">
        <lane id=":intersection_1_2_24_0" index="0" speed="11.11" length="29.85" shape="801.60,1186.40 800.65,1195.85 797.80,1202.60 793.05,1206.65 786.40,1208.00"/>
        <lane id=":intersection_1_2_24_1" index="1" speed="10.88" length="27.14" shape="801.60,1186.40 800.65,1194.45 797.80,1200.20 793.05,1203.65 786.40,1204.80"/>
        <lane id=":intersection_1_2_24_2" index="2" speed="10.36" length="24.51" shape="801.60,1186.40 800.65,1193.05 797.80,1197.80 793.05,1200.65 786.40,1201.60"/>
    </edge>
    <edge id=":intersection_1_2_27" function="internal">
        <lane id=":intersection_1_2_27_0" index="0" speed="6.51" length="9.03" shape="786.40,1192.00 788.85,1191.65 790.60,1190.60 791.65,1188.85 792.00,1186.40"/>
        <lane id=":intersection_1_2_27_1" index="1" speed="7.33" length="11.73" shape="786.40,1192.00 790.25,1191.65 793.00,1190.60 794.65,1188.85 795.20,1186.40"/>
        <lane id=":intersection_1_2_27_2" index="2" speed="8.10" length="14.57" shape="786.40,1192.00 791.65,1191.65 795.40,1190.60 797.65,1188.85 798.40,1186.40"/>
    </edge>
    <edge id=":intersection_1_2_30" function="internal">
        <lane id=":intersection_1_2_30_0" index="0" speed="11.11" length="27.37" shape="786.40,1195.20 794.50,1194.70 800.00,1193.60 805.50,1192.50 813.60,1192.00"/>
        <lane id=":intersection_1_2_30_1" index="1" speed="11.11" length="27.37" shape="786.40,1195.20 813.60,1195.20"/>
        <lane id=":intersection_1_2_30_2" index="2" speed="11.11" length="27.37" shape="786.40,1195.20 794.50,1195.70 800.00,1196.80 805.50,1197.90 813.60,1198.40"/>
    </edge>
    <edge id=":intersection_1_2_33" function="internal">
        <lane id=":intersection_1_2_33_0" index="0" speed="11.11" length="29.85" shape="786.40,1198.40 795.85,1199.35 802.60,1202.20 806.65,1206.95 808.00,1213.60"/>
        <lane id=":intersection_1_2_33_1" index="1" speed="10.88" length="27.14" shape="786.40,1198.40 794.45,1199.35 800.20,1202.20 803.65,1206.95 804.80,1213.60"/>
        <lane id=":intersection_1_2_33_2" index="2" speed="10.36" length="24.51" shape="786.40,1198.40 793.05,1199.35 797.80,1202.20 800.65,1206.95 801.60,1213.60"/>
    </edge>
    <edge id=":intersection_1_3_0" function="internal">
        <lane id=":intersection_1_3_0_0" index="0" speed="6.51" length="9.03" shape="792.00,1813.60 791.65,1811.15 790.60,1809.40 788.85,1808.35 786.40,1808.00"/>
        <lane id=":intersection_1_3_0_1" index="1" speed="7.33" length="11.73" shape="792.00,1813.60 791.65,1809.75 790.60,1807.00 788.85,1805.35 786.40,1804.80"/>
        <lane id=":intersection_1_3_0_2" index="2" speed="8.10" length="14.57" shape="792.00,1813.60 791.65,1808.35 790.60,1804.60 788.85,1802.35 786.40,1801.60"/>
    </edge>
    <edge id=":intersection_1_3_3" function="internal">
        <lane id=":intersection_1_3_3_0" index="0" speed="11.11" length="27.37" shape="795.20,1813.60 794.70,1805.50 793.60,1800.00 792.50,1794.50 792.00,1786.40"/>
        <lane id=":intersection_1_3_3_1" index="1" speed="11.11" length="27.37" shape="795.20,1813.60 795.20,1786.40"/>
        <lane id=":intersection_1_3_3_2" index="2" speed="11.11" length="27.37" shape="795.20,1813.60 795.70,1805.50 796.80,1800.00 797.90,1794.50 798.40,1786.40"/>
    </edge>
    <edge id=":intersection_1_3_6" function="internal">
        <lane id=":intersection_1_3_6_0" index="0" speed="11.11" length="29.85" shape="798.40,1813.60 799.35,1804.15 802.20,1797.40 806.95,1793.35 813.60,1792.00"/>
        <lane id=":intersection_1_3_6_1" index="1" speed="10.88" length="27.14" shape="798.40,1813.60 799.35,1805.55 802.20,1799.80 806.95,1796.35 813.60,1795.20"/>
        <lane id=":intersection_1_3_6_2" index="2" speed="10.36" length="24.51" shape="798.40,1813.60 799.35,1806.95 802.20,1802.20 806.95,1799.35 813.60,1798.40"/>
    </edge>
    <edge id=":intersection_1_3_9" function="internal">
        <lane id=":intersection_1_3_9_0" index="0" speed="6.51" length="9.03" shape="813.60,1808.00 811.15,1808.35 809.40,1809.40 808.35,1811.15 808.00,1813.60"/>
        <lane id=":intersection_1_3_9_1" index="1" speed="7.33" length="11.73" shape="813.60,1808.00 809.75,1808.35 807.00,1809.40 805.35,1811.15 804.80,1813.60"/>
        <lane id=":intersection_1_3_9_2" index="2" speed="8.10" length="14.57" shape="813.60,1808.00 808.35,1808.35 804.60,1809.40 802.35,1811.15 801.60,1813.60"/>
    </edge>
    <edge id=":intersection_1_3_12" function="internal">
        <lane id=":intersection_1_3_12_0" index="0" speed="11.11" length="27.37" shape="813.60,1804.80 805.50,1805.30 800.00,1806.40 794.50,1807.50 786.40,1808.00"/>
        <lane id=":intersection_1_3_12_1" index="1" speed="11.11" length="27.37" shape="813.60,1804.80 786.40,1804.80"/>
        <lane id=":intersection_1_3_12_2" index="2" speed="11.11" length="27.37" shape="813.60,1804.80 805.50,1804.30 800.00,1803.20 794.50,1802.10 786.40,1801.60"/>
    </edge>
    <edge id=":intersection_1_3_15" function="internal">
        <lane id=":intersection_1_3_15_0" index="0" speed="11.11" length="29.85" shape="813.60,1801.60 804.15,1800.65 797.40,1797.80 793.35,1793.05 792.00,1786.40"/>
        <lane id=":intersection_1_3_15_1" index="1" speed="10.88" length="27.14" shape="813.60,1801.60 805.55,1800.65 799.80,1797.80 796.35,1793.05 795.20,1786.40"/>
        <lane id=":intersection_1_3_15_2" index="2" speed="10.36" length="24.51" shape="813.60,1801.60 806.95,1800.65 802.20,1797.80 799.35,1793.05 798.40,1786.40"/>
    </edge>
    <edge id=":intersection_1_3_18" function="internal">
        <lane id=":intersection_1_3_18_0" index="0" speed="6.51" length="9.03" shape="808.00,1786.40 808.35,1788.85 809.40,1790.60 811.15,1791.65 813.60,1792.00"/>
        <lane id=":intersection_1_3_18_1" index="1" speed="7.33" length="11.73" shape="808.00,1786.40 808.35,1790.25 809.40,1793.00 811.15,1794.65 813.60,1795.20"/>
        <lane id=":intersection_1_3_18_2" index="2" speed="8.10" length="14.57" shape="808.00,1786.40 808.35,1791.65 809.40,1795.40 811.15,1797.65 813.60,1798.40"/>
    </edge>
    <edge id=":intersection_1_3_21" function="internal">
        <lane id=":intersection_1_3_21_0" index="0" speed="11.11" length="27.37" shape="804.80,1786.40 805.30,1794.50 806.40,1800.00 807.50,1805.50 808.00,1813.60"/>
        <lane id=":intersection_1_3_21_1" index="1" speed="11.11" length="27.37" shape="804.80,1786.40 804.80,1813.60"/>
        <lane id=":intersection_1_3_21_2" index="2" speed="11.11" length="27.37" shape="804.80,1786.40 804.30,1794.50 803.20,1800.00 802.10,1805.50 801.60,1813.60"/>
    </edge>
    <edge id=":intersection_1_3_24" function="internal">
        <lane id=":intersection_1_3_24_0" index="0" speed="11.11" length="29.85" shape="801.60,1786.40 800.65,1795.85 797.80,1802.60 793.05,1806.65 786.40,1808.00"/>
        <lane id=":intersection_1_3_24_1" index="1" speed="10.88" length="27.14" shape="801.60,1786.40 800.65,1794.45 797.80,1800.20 793.05,1803.65 786.40,1804.80"/>
        <lane id=":intersection_1_3_24_2" index="2" speed="10.36" length="24.51" shape="801.60,1786.40 800.65,1793.05 797.80,1797.80 793.05,1800.65 786.40,1801.60"/>
    </edge>
    <edge id=":intersection_1_3_27" function="internal">
        <lane id=":intersection_1_3_27_0" index="0" speed="6.51" length="9.03" shape="786.40,1792.00 788.85,1791.65 790.60,1790.60 791.65,1788.85 792.00,1786.40"/>
        <lane id=":intersection_1_3_27_1" index="1" speed="7.33" length="11.73" shape="786.40,1792.00 790.25,1791.65 793.00,1790.60 794.65,1788.85 795.20,1786.40"/>
        <lane id=":intersection_1_3_27_2" index="2" speed="8.10" length="14.57" shape="786.40,1792.00 791.65,1791.65 795.40,1790.60 797.65,1788.85 798.40,1786.40"/>
    </edge>
    <edge id=":intersection_1_3_30" function="internal">
        <lane id=":intersection_1_3_30_0" index="0" speed="11.11" length="27.37" shape="786.40,1795.20 794.50,1794.70 800.00,1793.60 805.50,1792.50 813.60,1792.00"/>
        <lane id=":intersection_1_3_30_1" index="1" speed="11.11" length="27.37" shape="786.40,1795.20 813.60,1795.20"/>
        <lane id=":intersection_1_3_30_2" index="2" speed="11.11" length="27.37" shape="786.40,1795.20 794.50,1795.70 800.00,1796.80 805.50,1797.90 813.60,1798.40"/>
    </edge>
    <edge id=":intersection_1_3_33" function="internal">
        <lane id=":intersection_1_3_33_0" index="0" speed="11.11" length="29.85" shape="786.40,1798.40 795.85,1799.35 802.60,1802.20 806.65,1806.95 808.00,1813.60"/>
        <lane id=":intersection_1_3_33_1" index="1" speed="10.88" length="27.14" shape="786.40,1798.40 794.45,1799.35 800.20,1802.20 803.65,1806.95 804.80,1813.60"/>
        <lane id=":intersection_1_3_33_2" index="2" speed="10.36" length="24.51" shape="786.40,1798.40 793.05,1799.35 797.80,1802.20 800.65,1806.95 801.60,1813.60"/>
    </edge>
    <edge id=":intersection_1_4_0" function="internal">
        <lane id=":intersection_1_4_0_0" index="0" speed="6.51" length="9.03" shape="792.00,2413.60 791.65,2411.15 790.60,2409.40 788.85,2408.35 786.40,2408.00"/>
        <lane id=":intersection_1_4_0_1" index="1" speed="7.33" length="11.73" shape="792.00,2413.60 791.65,2409.75 790.60,2407.00 788.85,2405.35 786.40,2404.80"/>
        <lane id=":intersection_1_4_0_2" index="2" speed="8.10" length="14.57" shape="792.00,2413.60 791.65,2408.35 790.60,2404.60 788.85,2402.35 786.40,2401.60"/>
    </edge>
    <edge id=":intersection_1_4_3" function="internal">
        <lane id=":intersection_1_4_3_0" index="0" speed="11.11" length="27.37" shape="795.20,2413.60 794.70,2405.50 793.60,2400.00 792.50,2394.50 792.00,2386.40"/>
        <lane id=":intersection_1_4_3_1" index="1" speed="11.11" length="27.37" shape="795.20,2413.60 795.20,2386.40"/>
        <lane id=":intersection_1_4_3_2" index="2" speed="11.11" length="27.37" shape="795.20,2413.60 795.70,2405.50 796.80,2400.00 797.90,2394.50 798.40,2386.40"/>
    </edge>
    <edge id=":intersection_1_4_6" function="internal">
        <lane id=":intersection_1_4_6_0" index="0" speed="11.11" length="29.85" shape="798.40,2413.60 799.35,2404.15 802.20,2397.40 806.95,2393.35 813.60,2392.00"/>
        <lane id=":intersection_1_4_6_1" index="1" speed="10.88" length="27.14" shape="798.40,2413.60 799.35,2405.55 802.20,2399.80 806.95,2396.35 813.60,2395.20"/>
        <lane id=":intersection_1_4_6_2" index="2" speed="10.36" length="24.51" shape="798.40,2413.60 799.35,2406.95 802.20,2402.20 806.95,2399.35 813.60,2398.40"/>
    </edge>
    <edge id=":intersection_1_4_9" function="internal">
        <lane id=":intersection_1_4_9_0" index="0" speed="6.51" length="9.03" shape="813.60,2408.00 811.15,2408.35 809.40,2409.40 808.35,2411.15 808.00,2413.60"/>
        <lane id=":intersection_1_4_9_1" index="1" speed="7.33" length="11.73" shape="813.60,2408.00 809.75,2408.35 807.00,2409.40 805.35,2411.15 804.80,2413.60"/>
        <lane id=":intersection_1_4_9_2" index="2" speed="8.10" length="14.57" shape="813.60,2408.00 808.35,2408.35 804.60,2409.40 802.35,2411.15 801.60,2413.60"/>
    </edge>
    <edge id=":intersection_1_4_12" function="internal">
        <lane id=":intersection_1_4_12_0" index="0" speed="11.11" length="27.37" shape="813.60,2404.80 805.50,2405.30 800.00,2406.40 794.50,2407.50 786.40,2408.00"/>
        <lane id=":intersection_1_4_12_1" index="1" speed="11.11" length="27.37" shape="813.60,2404.80 786.40,2404.80"/>
        <lane id=":intersection_1_4_12_2" index="2" speed="11.11" length="27.37" shape="813.60,2404.80 805.50,2404.30 800.00,2403.20 794.50,2402.10 786.40,2401.60"/>
    </edge>
    <edge id=":intersection_1_4_15" function="internal">
        <lane id=":intersection_1_4_15_0" index="0" speed="11.11" length="29.85" shape="813.60,2401.60 804.15,2400.65 797.40,2397.80 793.35,2393.05 792.00,2386.40"/>
        <lane id=":intersection_1_4_15_1" index="1" speed="10.88" length="27.14" shape="813.60,2401.60 805.55,2400.65 799.80,2397.80 796.35,2393.05 795.20,2386.40"/>
        <lane id=":intersection_1_4_15_2" index="2" speed="10.36" length="24.51" shape="813.60,2401.60 806.95,2400.65 802.20,2397.80 799.35,2393.05 798.40,2386.40"/>
    </edge>
    <edge id=":intersection_1_4_18" function="internal">
        <lane id=":intersection_1_4_18_0" index="0" speed="6.51" length="9.03" shape="808.00,2386.40 808.35,2388.85 809.40,2390.60 811.15,2391.65 813.60,2392.00"/>
        <lane id=":intersection_1_4_18_1" index="1" speed="7.33" length="11.73" shape="808.00,2386.40 808.35,2390.25 809.40,2393.00 811.15,2394.65 813.60,2395.20"/>
        <lane id=":intersection_1_4_18_2" index="2" speed="8.10" length="14.57" shape="808.00,2386.40 808.35,2391.65 809.40,2395.40 811.15,2397.65 813.60,2398.40"/>
    </edge>
    <edge id=":intersection_1_4_21" function="internal">
        <lane id=":intersection_1_4_21_0" index="0" speed="11.11" length="27.37" shape="804.80,2386.40 805.30,2394.50 806.40,2400.00 807.50,2405.50 808.00,2413.60"/>
        <lane id=":intersection_1_4_21_1" index="1" speed="11.11" length="27.37" shape="804.80,2386.40 804.80,2413.60"/>
        <lane id=":intersection_1_4_21_2" index="2" speed="11.11" length="27.37" shape="804.80,2386.40 804.30,2394.50 803.20,2400.00 802.10,2405.50 801.60,2413.60"/>
    </edge>
    <edge id=":intersection_1_4_24" function="internal">
        <lane id=":intersection_1_4_24_0" index="0" speed="11.11" length="29.85" shape="801.60,2386.40 800.65,2395.85 797.80,2402.60 793.05,2406.65 786.40,2408.00"/>
        <lane id=":intersection_1_4_24_1" index="1" speed="10.88" length="27.14" shape="801.60,2386.40 800.65,2394.45 797.80,2400.20 793.05,2403.65 786.40,2404.80"/>
        <lane id=":intersection_1_4_24_2" index="2" speed="10.36" length="24.51" shape="801.60,2386.40 800.65,2393.05 797.80,2397.80 793.05,2400.65 786.40,2401.60"/>
    </edge>
    <edge id=":intersection_1_4_27" function="internal">
        <lane id=":intersection_1_4_27_0" index="0" speed="6.51" length="9.03" shape="786.40,2392.00 788.85,2391.65 790.60,2390.60 791.65,2388.85 792.00,2386.40"/>
        <lane id=":intersection_1_4_27_1" index="1" speed="7.33" length="11.73" shape="786.40,2392.00 790.25,2391.65 793.00,2390.60 794.65,2388.85 795.20,2386.40"/>
        <lane id=":intersection_1_4_27_2" index="2" speed="8.10" length="14.57" shape="786.40,2392.00 791.65,2391.65 795.40,2390.60 797.65,2388.85 798.40,2386.40"/>
    </edge>
    <edge id=":intersection_1_4_30" function="internal">
        <lane id=":intersection_1_4_30_0" index="0" speed="11.11" length="27.37" shape="786.40,2395.20 794.50,2394.70 800.00,2393.60 805.50,2392.50 813.60,2392.00"/>
        <lane id=":intersection_1_4_30_1" index="1" speed="11.11" length="27.37" shape="786.40,2395.20 813.60,2395.20"/>
        <lane id=":intersection_1_4_30_2" index="2" speed="11.11" length="27.37" shape="786.40,2395.20 794.50,2395.70 800.00,2396.80 805.50,2397.90 813.60,2398.40"/>
    </edge>
    <edge id=":intersection_1_4_33" function="internal">
        <lane id=":intersection_1_4_33_0" index="0" speed="11.11" length="29.85" shape="786.40,2398.40 795.85,2399.35 802.60,2402.20 806.65,2406.95 808.00,2413.60"/>
        <lane id=":intersection_1_4_33_1" index="1" speed="10.88" length="27.14" shape="786.40,2398.40 794.45,2399.35 800.20,2402.20 803.65,2406.95 804.80,2413.60"/>
        <lane id=":intersection_1_4_33_2" index="2" speed="10.36" length="24.51" shape="786.40,2398.40 793.05,2399.35 797.80,2402.20 800.65,2406.95 801.60,2413.60"/>
    </edge>
    <edge id=":intersection_1_5_0" function="internal">
        <lane id=":intersection_1_5_0_0" index="0" speed="3.65" length="4.67" shape="801.60,3000.00 800.80,3001.20 800.00,3001.60 799.20,3001.20 798.40,3000.00"/>
    </edge>
    <edge id=":intersection_2_0_0" function="internal">
        <lane id=":intersection_2_0_0_0" index="0" speed="3.65" length="4.67" shape="1598.40,0.00 1599.20,-1.20 1600.00,-1.60 1600.80,-1.20 1601.60,0.00"/>
    </edge>
    <edge id=":intersection_2_1_0" function="internal">
        <lane id=":intersection_2_1_0_0" index="0" speed="6.51" length="9.03" shape="1592.00,613.60 1591.65,611.15 1590.60,609.40 1588.85,608.35 1586.40,608.00"/>
        <lane id=":intersection_2_1_0_1" index="1" speed="7.33" length="11.73" shape="1592.00,613.60 1591.65,609.75 1590.60,607.00 1588.85,605.35 1586.40,604.80"/>
        <lane id=":intersection_2_1_0_2" index="2" speed="8.10" length="14.57" shape="1592.00,613.60 1591.65,608.35 1590.60,604.60 1588.85,602.35 1586.40,601.60"/>
    </edge>
    <edge id=":intersection_2_1_3" function="internal">