<?xml version="1.0" encoding="utf-8"?>
<connections version="1.1" xmlns:xsi="http://www.w3.org/2001/XMLSchema-instance" xsi:noNamespaceSchemaLocation="http://sumo.dlr.de/xsd/connections_file.xsd">
	<connection from="road_0_1_0" fromLane="1" to="road_1_1_0" toLane="2"/>
	<connection from="road_0_1_0" fromLane="1" to="road_1_1_0" toLane="1"/>
	<connection from="road_0_1_0" fromLane="1" to="road_1_1_0" toLane="0"/>
	<connection from="road_0_1_0" fromLane="2" to="road_1_1_1" toLane="2"/>
	<connection from="road_0_1_0" fromLane="2" to="road_1_1_1" toLane="1"/>
	<connection from="road_0_1_0" fromLane="2" to="road_1_1_1" toLane="0"/>
	<connection from="road_0_1_0" fromLane="0" to="road_1_1_3" toLane="2"/>
	<connection from="road_0_1_0" fromLane="0" to="road_1_1_3" toLane="1"/>
	<connection from="road_0_1_0" fromLane="0" to="road_1_1_3" toLane="0"/>
	<connection from="road_1_0_1" fromLane="0" to="road_1_1_0" toLane="2"/>
	<connection from="road_1_0_1" fromLane="0" to="road_1_1_0" toLane="1"/>
	<connection from="road_1_0_1" fromLane="0" to="road_1_1_0" toLane="0"/>
	<connection from="road_1_0_1" fromLane="1" to="road_1_1_1" toLane="2"/>
	<connection from="road_1_0_1" fromLane="1" to="road_1_1_1" toLane="1"/>
	<connection from="road_1_0_1" fromLane="1" to="road_1_1_1" toLane="0"/>
	<connection from="road_1_0_1" fromLane="2" to="road_1_1_2" toLane="2"/>
	<connection from="road_1_0_1" fromLane="2" to="road_1_1_2" toLane="1"/>
	<connection from="road_1_0_1" fromLane="2" to="road_1_1_2" toLane="0"/>
	<connection from="road_2_1_2" fromLane="0" to="road_1_1_1" toLane="2"/>
	<connection from="road_2_1_2" fromLane="0" to="road_1_1_1" toLane="1"/>
	<connection from="road_2_1_2" fromLane="0" to="road_1_1_1" toLane="0"/>
	<connection from="road_2_1_2" fromLane="1" to="road_1_1_2" toLane="2"/>
	<connection from="road_2_1_2" fromLane="1" to="road_1_1_2" toLane="1"/>
	<connection from="road_2_1_2" fromLane="1" to="road_1_1_2" toLane="0"/>
	<connection from="road_2_1_2" fromLane="2" to="road_1_1_3" toLane="2"/>
	<connection from="road_2_1_2" fromLane="2" to="road_1_1_3" toLane="1"/>
	<connection from="road_2_1_2" fromLane="2" to="road_1_1_3" toLane="0"/>
	<connection from="road_1_2_3" fromLane="2" to="road_1_1_0" toLane="2"/>
	<connection from="road_1_2_3" fromLane="2" to="road_1_1_0" toLane="1"/>
	<connection from="road_1_2_3" fromLane="2" to="road_1_1_0" toLane="0"/>
	<connection from="road_1_2_3" fromLane="0" to="road_1_1_2" toLane="2"/>
	<connection from="road_1_2_3" fromLane="0" to="road_1_1_2" toLane="1"/>
	<connection from="road_1_2_3" fromLane="0" to="road_1_1_2" toLane="0"/>
	<connection from="road_1_2_3" fromLane="1" to="road_1_1_3" toLane="2"/>
	<connection from="road_1_2_3" fromLane="1" to="road_1_1_3" toLane="1"/>
	<connection from="road_1_2_3" fromLane="1" to="road_1_1_3" toLane="0"/>
	<connection from="road_0_2_0" fromLane="1" to="road_1_2_0" toLane="2"/>
	<connection from="road_0_2_0" fromLane="1" to="road_1_2_0" toLane="1"/>
	<connection from="road_0_2_0" fromLane="1" to="road_1_2_0" toLane="0"/>
	<connection from="road_0_2_0" fromLane="2" to="road_1_2_1" toLane="2"/>
	<connection from="road_0_2_0" fromLane="2" to="road_1_2_1" toLane="1"/>
	<connection from="road_0_2_0" fromLane="2" to="road_1_2_1" toLane="0"/>
	<connection from="road_0_2_0" fromLane="0" to="road_1_2_3" toLane="2"/>
	<connection from="road_0_2_0" fromLane="0" to="road_1_2_3" toLane="1"/>
	<connection from="road_0_2_0" fromLane="0" to="road_1_2_3" toLane="0"/>
	<connection from="road_1_1_1" fromLane="0" to="road_1_2_0" toLane="2"/>
	<connection from="road_1_1_1" fromLane="0" to="road_1_2_0" toLane="1"/>
	<connection from="road_1_1_1" fromLane="0" to="road_1_2_0" toLane="0"/>
	<connection from="road_1_1_1" fromLane="1" to="road_1_2_1" toLane="2"/>
	<connection from="road_1_1_1" fromLane="1" to="road_1_2_1" toLane="1"/>
	<connection from="road_1_1_1" fromLane="1" to="road_1_2_1" toLane="0"/>
	<connection from="road_1_1_1" fromLane="2" to="road_1_2_2" toLane="2"/>
	<connection from="road_1_1_1" fromLane="2" to="road_1_2_2" toLane="1"/>
	<connection from="road_1_1_1" fromLane="2" to="road_1_2_2" toLane="0"/>
	<connection from="road_2_2_2" fromLane="0" to="road_1_2_1" toLane="2"/>
	<connection from="road_2_2_2" fromLane="0" to="road_1_2_1" toLane="1"/>
	<connection from="road_2_2_2" fromLane="0" to="road_1_2_1" toLane="0"/>
	<connection from="road_2_2_2" fromLane="1" to="road_1_2_2" toLane="2"/>
	<connection from="road_2_2_2" fromLane="1" to="road_1_2_2" toLane="1"/>
	<connection from="road_2_2_2" fromLane="1" to="road_1_2_2" toLane="0"/>
	<connection from="road_2_2_2" fromLane="2" to="road_1_2_3" toLane="2"/>
	<connection from="road_2_2_2" fromLane="2" to="road_1_2_3" toLane="1"/>
	<connection from="road_2_2_2" fromLane="2" to="road_1_2_3" toLane="0"/>
	<connection from="road_1_3_3" fromLane="2" to="road_1_2_0" toLane="2"/>
	<connection from="road_1_3_3" fromLane="2" to="road_1_2_0" toLane="1"/>
	<connection from="road_1_3_3" fromLane="2" to="road_1_2_0" toLane="0"/>
	<connection from="road_1_3_3" fromLane="0" to="road_1_2_2" toLane="2"/>
	<connection from="road_1_3_3" fromLane="0" to="road_1_2_2" toLane="1"/>
	<connection from="road_1_3_3" fromLane="0" to="road_1_2_2" toLane="0"/>
	<connection from="road_1_3_3" fromLane="1" to="road_1_2_3" toLane="2"/>
	<connection from="road_1_3_3" fromLane="1" to="road_1_2_3" toLane="1"/>
	<connection from="road_1_3_3" fromLane="1" to="road_1_2_3" toLane="0"/>
	<connection from="road_0_3_0" fromLane="1" to="road_1_3_0" toLane="2"/>
	<connection from="road_0_3_0" fromLane="1" to="road_1_3_0" toLane="1"/>
	<connection from="road_0_3_0" fromLane="1" to="road_1_3_0" toLane="0"/>
	<connection from="road_0_3_0" fromLane="2" to="road_1_3_1" toLane="2"/>
	<connection from="road_0_3_0" fromLane="2" to="road_1_3_1" toLane="1"/>
	<connection from="road_0_3_0" fromLane="2" to="road_1_3_1" toLane="0"/>
	<connection from="road_0_3_0" fromLane="0" to="road_1_3_3" toLane="2"/>
	<connection from="road_0_3_0" fromLane="0" to="road_1_3_3" toLane="1"/>
	<connection from="road_0_3_0" fromLane="0" to="road_1_3_3" toLane="0"/>
	<connection from="road_1_2_1" fromLane="0" to="road_1_3_0" toLane="2"/>
	<connection from="road_1_2_1" fromLane="0" to="road_1_3_0" toLane="1"/>
	<connection from="road_1_2_1" fromLane="0" to="road_1_3_0" toLane="0"/>
	<connection from="road_1_2_1" fromLane="1" to="road_1_3_1" toLane="2"/>
	<connection from="road_1_2_1" fromLane="1" to="road_1_3_1" toLane="1"/>
	<connection from="road_1_2_1" fromLane="1" to="road_1_3_1" toLane="0"/>
	<connection from="road_1_2_1" fromLane="2" to="road_1_3_2" toLane="2"/>
	<connection from="road_1_2_1" fromLane="2" to="road_1_3_2" toLane="1"/>
	<connection from="road_1_2_1" fromLane="2" to="road_1_3_2" toLane="0"/>
	<connection from="road_2_3_2" fromLane="0" to="road_1_3_1" toLane="2"/>
	<connection from="road_2_3_2" fromLane="0" to="road_1_3_1" toLane="1"/>
	<connection from="road_2_3_2" fromLane="0" to="road_1_3_1" toLane="0"/>
	<connection from="road_2_3_2" fromLane="1" to="road_1_3_2" toLane="2"/>
	<connection from="road_2_3_2" fromLane="1" to="road_1_3_2" toLane="1"/>
	<connection from="road_2_3_2" fromLane="1" to="road_1_3_2" toLane="0"/>
	<connection from="road_2_3_2" fromLane="2" to="road_1_3_3" toLane="2"/>
	<connection from="road_2_3_2" fromLane="2" to="road_1_3_3" toLane="1"/>
	<connection from="road_2_3_2" fromLane="2" to="road_1_3_3" toLane="0"/>
	<connection from="road_1_4_3" fromLane="2" to="road_1_3_0" toLane="2"/>
	<connection from="road_1_4_3" fromLane="2" to="road_1_3_0" toLane="1"/>
	<connection from="road_1_4_3" fromLane="2" to="road_1_3_0" toLane="0"/>
	<connection from="road_1_4_3" fromLane="0" to="road_1_3_2" toLane="2"/>
	<connection from="road_1_4_3" fromLane="0" to="road_1_3_2" toLane="1"/>
	<connection from="road_1_4_3" fromLane="0" to="road_1_3_2" toLane="0"/>
	<connection from="road_1_4_3" fromLane="1" to="road_1_3_3" toLane="2"/>
	<connection from="road_1_4_3" fromLane="1" to="road_1_3_3" toLane="1"/>
	<connection from="road_1_4_3" fromLane="1" to="road_1_3_3" toLane="0"/>
	<connection from="road_0_4_0" fromLane="1" to="road_1_4_0" toLane="2"/>
	<connection from="road_0_4_0" fromLane="1" to="road_1_4_0" toLane="1"/>
	<connection from="road_0_4_0" fromLane="1" to="road_1_4_0" toLane="0"/>
	<connection from="road_0_4_0" fromLane="2" to="road_1_4_1" toLane="2"/>
	<connection from="road_0_4_0" fromLane="2" to="road_1_4_1" toLane="1"/>
	<connection from="road_0_4_0" fromLane="2" to="road_1_4_1" toLane="0"/>
	<connection from="road_0_4_0" fromLane="0" to="road_1_4_3" toLane="2"/>
	<connection from="road_0_4_0" fromLane="0" to="road_1_4_3" toLane="1"/>
	<connection from="road_0_4_0" fromLane="0" to="road_1_4_3" toLane="0"/>
	<connection from="road_1_3_1" fromLane="0" to="road_1_4_0" toLane="2"/>
	<connection from="road_1_3_1" fromLane="0" to="road_1_4_0" toLane="1"/>
	<connection from="road_1_3_1" fromLane="0" to="road_1_4_0" toLane="0"/>
	<connection from="road_1_3_1" fromLane="1" to="road_1_4_1" toLane="2"/>
	<connection from="road_1_3_1" fromLane="1" to="road_1_4_1" toLane="1"/>
	<connection from="road_1_3_1" fromLane="1" to="road_1_4_1" toLane="0"/>
	<connection from="road_1_3_1" fromLane="2" to="road_1_4_2" toLane="2"/>
	<connection from="road_1_3_1" fromLane="2" to="road_1_4_2" toLane="1"/>
	<connection from="road_1_3_1" fromLane="2" to="road_1_4_2" toLane="0"/>
	<connection from="road_2_4_2" fromLane="0" to="road_1_4_1" toLane="2"/>
	<connection from="road_2_4_2" fromLane="0" to="road_1_4_1" toLane="1"/>
	<connection from="road_2_4_2" fromLane="0" to="road_1_4_1" toLane="0"/>
	<connection from="road_2_4_2" fromLane="1" to="road_1_4_2" toLane="2"/>
	<connection from="road_2_4_2" fromLane="1" to="road_1_4_2" toLane="1"/>
	<connection from="road_2_4_2" fromLane="1" to="road_1_4_2" toLane="0"/>
	<connection from="road_2_4_2" fromLane="2" to="road_1_4_3" toLane="2"/>
	<connection from="road_2_4_2" fromLane="2" to="road_1_4_3" toLane="1"/>
	<connection from="road_2_4_2" fromLane="2" to="road_1_4_3" toLane="0"/>
	<connection from="road_1_5_3" fromLane="2" to="road_1_4_0" toLane="2"/>
	<connection from="road_1_5_3" fromLane="2" to="road_1_4_0" toLane="1"/>
	<connection from="road_1_5_3" fromLane="2" to="road_1_4_0" toLane="0"/>
	<connection from="road_1_5_3" fromLane="0" to="road_1_4_2" toLane="2"/>
	<connection from="road_1_5_3" fromLane="0" to="road_1_4_2" toLane="1"/>
	<connection from="road_1_5_3" fromLane="0" to="road_1_4_2" toLane="0"/>
	<connection from="road_1_5_3" fromLane="1" to="road_1_4_3" toLane="2"/>
	<connection from="road_1_5_3" fromLane="1" to="road_1_4_3" toLane="1"/>
	<connection from="road_1_5_3" fromLane="1" to="road_1_4_3" toLane="0"/>
	<connection from="road_1_1_0" fromLane="1" to="road_2_1_0" toLane="2"/>
	<connection from="road_1_1_0" fromLane="1" to="road_2_1_0" toLane="1"/>
	<connection from="road_1_1_0" fromLane="1" to="road_2_1_0" toLane="0"/>
	<connection from="road_1_1_0" fromLane="2" to="road_2_1_1" toLane="2"/>
	<connection from="road_1_1_0" fromLane="2" to="road_2_1_1" toLane="1"/>
	<connection from="road_1_1_0" fromLane="2" to="road_2_1_1" toLane="0"/>
	<connection from="road_1_1_0" fromLane="0" to="road_2_1_3" toLane="2"/>
	<connection from="road_1_1_0" fromLane="0" to="road_2_1_3" toLane="1"/>
	<connection from="road_1_1_0" fromLane="0" to="road_2_1_3" toLane="0"/>
	<connection from="road_2_0_1" fromLane="0" to="road_2_1_0" toLane="2"/>
	<connection from="road_2_0_1" fromLane="0" to="road_2_1_0" toLane="1"/>
	<connection from="road_2_0_1" fromLane="0" to="road_2_1_0" toLane="0"/>
	<connection from="road_2_0_1" fromLane="1" to="road_2_1_1" toLane="2"/>
	<connection from="road_2_0_1" fromLane="1" to="road_2_1_1" toLane="1"/>
	<connection from="road_2_0_1" fromLane="1" to="road_2_1_1" toLane="0"/>
	<connection from="road_2_0_1" fromLane="2" to="road_2_1_2" toLane="2"/>
	<connection from="road_2_0_1" fromLane="2" to="road_2_1_2" toLane="1"/>
	<connection from="road_2_0_1" fromLane="2" to="road_2_1_2" toLane="0"/>
	<connection from="road_3_1_2" fromLane="0" to="road_2_1_1" toLane="2"/>
	<connection from="road_3_1_2" fromLane="0" to="road_2_1_1" toLane="1"/>
	<connection from="road_3_1_2" fromLane="0" to="road_2_1_1" toLane="0"/>
	<connection from="road_3_1_2" fromLane="1" to="road_2_1_2" toLane="2"/>
	<connection from="road_3_1_2" fromLane="1" to="road_2_1_2" toLane="1"/>
	<connection from="road_3_1_2" fromLane="1" to="road_2_1_2" toLane="0"/>
	<connection from="road_3_1_2" fromLane="2" to="road_2_1_3" toLane="2"/>
	<connection from="road_3_1_2" fromLane="2" to="road_2_1_3" toLane="1"/>
	<connection from="road_3_1_2" fromLane="2" to="road_2_1_3" toLane="0"/>
	<connection from="road_2_2_3" fromLane="2" to="road_2_1_0" toLane="2"/>
	<connection from="road_2_2_3" fromLane="2" to="road_2_1_0" toLane="1"/>
	<connection from="road_2_2_3" fromLane="2" to="road_2_1_0" toLane="0"/>
	<connection from="road_2_2_3" fromLane="0" to="road_2_1_2" toLane="2"/>
	<connection from="road_2_2_3" fromLane="0" to="road_2_1_2" toLane="1"/>
	<connection from="road_2_2_3" fromLane="0" to="road_2_1_2" toLane="0"/>
	<connection from="road_2_2_3" fromLane="1" to="road_2_1_3" toLane="2"/>
	<connection from="road_2_2_3" fromLane="1" to="road_2_1_3" toLane="1"/>
	<connection from="road_2_2_3" fromLane="1" to="road_2_1_3" toLane="0"/>
	<connection from="road_1_2_0" fromLane="1" to="road_2_2_0" toLane="2"/>
	<connection from="road_1_2_0" fromLane="1" to="road_2_2_0" toLane="1"/>
	<connection from="road_1_2_0" fromLane="1" to="road_2_2_0" toLane="0"/>
	<connection from="road_1_2_0" fromLane="2" to="road_2_2_1" toLane="2"/>
	<connection from="road_1_2_0" fromLane="2" to="road_2_2_1" toLane="1"/>
	<connection from="road_1_2_0" fromLane="2" to="road_2_2_1" toLane="0"/>
	<connection from="road_1_2_0" fromLane="0" to="road_2_2_3" toLane="2"/>
	<connection from="road_1_2_0" fromLane="0" to="road_2_2_3" toLane="1"/>
	<connection from="road_1_2_0" fromLane="0" to="road_2_2_3" toLane="0"/>
	<connection from="road_2_1_1" fromLane="0" to="road_2_2_0" toLane="2"/>
	<connection from="road_2_1_1" fromLane="0" to="road_2_2_0" toLane="1"/>
	<connection from="road_2_1_1" fromLane="0" to="road_2_2_0" toLane="0"/>
	<connection from="road_2_1_1" fromLane="1" to="road_2_2_1" toLane="2"/>
	<connection from="road_2_1_1" fromLane="1" to="road_2_2_1" toLane="1"/>
	<connection from="road_2_1_1" fromLane="1" to="road_2_2_1" toLane="0"/>
	<connection from="road_2_1_1" fromLane="2" to="road_2_2_2" toLane="2"/>
	<connection from="road_2_1_1" fromLane="2" to="road_2_2_2" toLane="1"/>
	<connection from="road_2_1_1" fromLane="2" to="road_2_2_2" toLane="0"/>
	<connection from="road_3_2_2" fromLane="0" to="road_2_2_1" toLane="2"/>
	<connection from="road_3_2_2" fromLane="0" to="road_2_2_1" toLane="1"/>
	<connection from="road_3_2_2" fromLane="0" to="road_2_2_1" toLane="0"/>
	<connection from="road_3_2_2" fromLane="1" to="road_2_2_2" toLane="2"/>
	<connection from="road_3_2_2" fromLane="1" to="road_2_2_2" toLane="1"/>
	<connection from="road_3_2_2" fromLane="1" to="road_2_2_2" toLane="0"/>
	<connection from="road_3_2_2" fromLane="2" to="road_2_2_3" toLane="2"/>
	<connection from="road_3_2_2" fromLane="2" to="road_2_2_3" toLane="1"/>
	<connection from="road_3_2_2" fromLane="2" to="road_2_2_3" toLane="0"/>
	<connection from="road_2_3_3" fromLane="2" to="road_2_2_0" toLane="2"/>
	<connection from="road_2_3_3" fromLane="2" to="road_2_2_0" toLane="1"/>
	<connection from="road_2_3_3" fromLane="2" to="road_2_2_0" toLane="0"/>
	<connection from="road_2_3_3" fromLane="0" to="road_2_2_2" toLane="2"/>
	<connection from="road_2_3_3" fromLane="0" to="road_2_2_2" toLane="1"/>
	<connection from="road_2_3_3" fromLane="0" to="road_2_2_2" toLane="0"/>
	<connection from="road_2_3_3" fromLane="1" to="road_2_2_3" toLane="2"/>
	<connection from="road_2_3_3" fromLane="1" to="road_2_2_3" toLane="1"/>
	<connection from="road_2_3_3" fromLane="1" to="road_2_2_3" toLane="0"/>
	<connection from="road_1_3_0" fromLane="1" to="road_2_3_0" toLane="2"/>
	<connection from="road_1_3_0" fromLane="1" to="road_2_3_0" toLane="1"/>
	<connection from="road_1_3_0" fromLane="1" to="road_2_3_0" toLane="0"/>
	<connection from="road_1_3_0" fromLane="2" to="road_2_3_1" toLane="2"/>
	<connection from="road_1_3_0" fromLane="2" to="road_2_3_1" toLane="1"/>
	<connection from="road_1_3_0" fromLane="2" to="road_2_3_1" toLane="0"/>
	<connection from="road_1_3_0" fromLane="0" to="road_2_3_3" toLane="2"/>
	<connection from="road_1_3_0" fromLane="0" to="road_2_3_3" toLane="1"/>
	<connection from="road_1_3_0" fromLane="0" to="road_2_3_3" toLane="0"/>
	<connection from="road_2_2_1" fromLane="0" to="road_2_3_0" toLane="2"/>
	<connection from="road_2_2_1" fromLane="0" to="road_2_3_0" toLane="1"/>
	<connection from="road_2_2_1" fromLane="0" to="road_2_3_0" toLane="0"/>
	<connection from="road_2_2_1" fromLane="1" to="road_2_3_1" toLane="2"/>
	<connection from="road_2_2_1" fromLane="1" to="road_2_3_1" toLane="1"/>
	<connection from="road_2_2_1" fromLane="1" to="road_2_3_1" toLane="0"/>
	<connection from="road_2_2_1" fromLane="2" to="road_2_3_2" toLane="2"/>
	<connection from="road_2_2_1" fromLane="2" to="road_2_3_2" toLane="1"/>
	<connection from="road_2_2_1" fromLane="2" to="road_2_3_2" toLane="0"/>
	<connection from="road_3_3_2" fromLane="0" to="road_2_3_1" toLane="2"/>
	<connection from="road_3_3_2" fromLane="0" to="road_2_3_1" toLane="1"/>
	<connection from="road_3_3_2" fromLane="0" to="road_2_3_1" toLane="0"/>
	<connection from="road_3_3_2" fromLane="1" to="road_2_3_2" toLane="2"/>
	<connection from="road_3_3_2" fromLane="1" to="road_2_3_2" toLane="1"/>
	<connection from="road_3_3_2" fromLane="1" to="road_2_3_2" toLane="0"/>
	<connection from="road_3_3_2" fromLane="2" to="road_2_3_3" toLane="2"/>
	<connection from="road_3_3_2" fromLane="2" to="road_2_3_3" toLane="1"/>
	<connection from="road_3_3_2" fromLane="2" to="road_2_3_3" toLane="0"/>
	<connection from="road_2_4_3" fromLane="2" to="road_2_3_0" toLane="2"/>
	<connection from="road_2_4_3" fromLane="2" to="road_2_3_0" toLane="1"/>
	<connection from="road_2_4_3" fromLane="2" to="road_2_3_0" toLane="0"/>
	<connection from="road_2_4_3" fromLane="0" to="road_2_3_2" toLane="2"/>
	<connection from="road_2_4_3" fromLane="0" to="road_2_3_2" toLane="1"/>
	<connection from="road_2_4_3" fromLane="0" to="road_2_3_2" toLane="0"/>
	<connection from="road_2_4_3" fromLane="1" to="road_2_3_3" toLane="2"/>
	<connection from="road_2_4_3" fromLane="1" to="road_2_3_3" toLane="1"/>
	<connection from="road_2_4_3" fromLane="1" to="road_2_3_3" toLane="0"/>
	<connection from="road_1_4_0" fromLane="1" to="road_2_4_0" toLane="2"/>
	<connection from="road_1_4_0" fromLane="1" to="road_2_4_0" toLane="1"/>
	<connection from="road_1_4_0" fromLane="1" to="road_2_4_0" toLane="0"/>
	<connection from="road_1_4_0" fromLane="2" to="road_2_4_1" toLane="2"/>
	<connection from="road_1_4_0" fromLane="2" to="road_2_4_1" toLane="1"/>
	<connection from="road_1_4_0" fromLane="2" to="road_2_4_1" toLane="0"/>
	<connection from="road_1_4_0" fromLane="0" to="road_2_4_3" toLane="2"/>
	<connection from="road_1_4_0" fromLane="0" to="road_2_4_3" toLane="1"/>
	<connection from="road_1_4_0" fromLane="0" to="road_2_4_3" toLane="0"/>
	<connection from="road_2_3_1" fromLane="0" to="road_2_4_0" toLane="2"/>
	<connection from="road_2_3_1" fromLane="0" to="road_2_4_0" toLane="1"/>
	<connection from="road_2_3_1" fromLane="0" to="road_2_4_0" toLane="0"/>
	<connection from="road_2_3_1" fromLane="1" to="road_2_4_1" toLane="2"/>
	<connection from="road_2_3_1" fromLane="1" to="road_2_4_1" toLane="1"/>
	<connection from="road_2_3_1" fromLane="1" to="road_2_4_1" toLane="0"/>
	<connection from="road_2_3_1" fromLane="2" to="road_2_4_2" toLane="2"/>
	<connection from="road_2_3_1" fromLane="2" to="road_2_4_2" toLane="1"/>
	<connection from="road_2_3_1" fromLane="2" to="road_2_4_2" toLane="0"/>
	<connection from="road_3_4_2" fromLane="0" to="road_2_4_1" toLane="2"/>
	<connection from="road_3_4_2" fromLane="0" to="road_2_4_1" toLane="1"/>
	<connection from="road_3_4_2" fromLane="0" to="road_2_4_1" toLane="0"/>
	<connection from="road_3_4_2" fromLane="1" to="road_2_4_2" toLane="2"/>
	<connection from="road_3_4_2" fromLane="1" to="road_2_4_2" toLane="1"/>
	<connection from="road_3_4_2" fromLane="1" to="road_2_4_2" toLane="0"/>
	<connection from="road_3_4_2" fromLane="2" to="road_2_4_3" toLane="2"/>
	<connection from="road_3_4_2" fromLane="2" to="road_2_4_3" toLane="1"/>
	<connection from="road_3_4_2" fromLane="2" to="road_2_4_3" toLane="0"/>
	<connection from="road_2_5_3" fromLane="2" to="road_2_4_0" toLane="2"/>
	<connection from="road_2_5_3" fromLane="2" to="road_2_4_0" toLane="1"/>
	<connection from="road_2_5_3" fromLane="2" to="road_2_4_0" toLane="0"/>
	<connection from="road_2_5_3" fromLane="0" to="road_2_4_2" toLane="2"/>
	<connection from="road_2_5_3" fromLane="0" to="road_2_4_2" toLane="1"/>
	<connection from="road_2_5_3" fromLane="0" to="road_2_4_2" toLane="0"/>
	<connection from="road_2_5_3" fromLane="1" to="road_2_4_3" toLane="2"/>
	<connection from="road_2_5_3" fromLane="1" to="road_2_4_3" toLane="1"/>
	<connection from="road_2_5_3" fromLane="1" to="road_2_4_3" toLane="0"/>
	<connection from="road_2_1_0" fromLane="1" to="road_3_1_0" toLane="2"/>
	<connection from="road_2_1_0" fromLane="1" to="road_3_1_0" toLane="1"/>
	<connection from="road_2_1_0" fromLane="1" to="road_3_1_0" toLane="0"/>
	<connection from="road_2_1_0" fromLane="2" to="road_3_1_1" toLane="2"/>
	<connection from="road_2_1_0" fromLane="2" to="road_3_1_1" toLane="1"/>
	<connection from="road_2_1_0" fromLane="2" to="road_3_1_1" toLane="0"/>
	<connection from="road_2_1_0" fromLane="0" to="road_3_1_3" toLane="2"/>
	<connection from="road_2_1_0" fromLane="0" to="road_3_1_3" toLane="1"/>
	<connection from="road_2_1_0" fromLane="0" to="road_3_1_3" toLane="0"/>
	<connection from="road_3_0_1" fromLane="0" to="road_3_1_0" toLane="2"/>
	<connection from="road_3_0_1" fromLane="0" to="road_3_1_0" toLane="1"/>
	<connection from="road_3_0_1" fromLane="0" to="road_3_1_0" toLane="0"/>
	<connection from="road_3_0_1" fromLane="1" to="road_3_1_1" toLane="2"/>
	<connection from="road_3_0_1" fromLane="1" to="road_3_1_1" toLane="1"/>
	<connection from="road_3_0_1" fromLane="1" to="road_3_1_1" toLane="0"/>
	<connection from="road_3_0_1" fromLane="2" to="road_3_1_2" toLane="2"/>
	<connection from="road_3_0_1" fromLane="2" to="road_3_1_2" toLane="1"/>
	<connection from="road_3_0_1" fromLane="2" to="road_3_1_2" toLane="0"/>
	<connection from="road_4_1_2" fromLane="0" to="road_3_1_1" toLane="2"/>
	<connection from="road_4_1_2" fromLane="0" to="road_3_1_1" toLane="1"/>
	<connection from="road_4_1_2" fromLane="0" to="road_3_1_1" toLane="0"/>
	<connection from="road_4_1_2" fromLane="1" to="road_3_1_2" toLane="2"/>
	<connection from="road_4_1_2" fromLane="1" to="road_3_1_2" toLane="1"/>
	<connection from="road_4_1_2" fromLane="1" to="road_3_1_2" toLane="0"/>
	<connection from="road_4_1_2" fromLane="2" to="road_3_1_3" toLane="2"/>
	<connection from="road_4_1_2" fromLane="2" to="road_3_1_3" toLane="1"/>
	<connection from="road_4_1_2" fromLane="2" to="road_3_1_3" toLane="0"/>
	<connection from="road_3_2_3" fromLane="2" to="road_3_1_0" toLane="2"/>
	<connection from="road_3_2_3" fromLane="2" to="road_3_1_0" toLane="1"/>
	<connection from="road_3_2_3" fromLane="2" to="road_3_1_0" toLane="0"/>
	<connection from="road_3_2_3" fromLane="0" to="road_3_1_2" toLane="2"/>
	<connection from="road_3_2_3" fromLane="0" to="road_3_1_2" toLane="1"/>
	<connection from="road_3_2_3" fromLane="0" to="road_3_1_2" toLane="0"/>
	<connection from="road_3_2_3" fromLane="1" to="road_3_1_3" toLane="2"/>
	<connection from="road_3_2_3" fromLane="1" to="road_3_1_3" toLane="1"/>
	<connection from="road_3_2_3" fromLane="1" to="road_3_1_3" toLane="0"/>
	<connection from="road_2_2_0" fromLane="1" to="road_3_2_0" toLane="2"/>
	<connection from="road_2_2_0" fromLane="1" to="road_3_2_0" toLane="1"/>
	<connection from="road_2_2_0" fromLane="1" to="road_3_2_0" toLane="0"/>
	<connection from="road_2_2_0" fromLane="2" to="road_3_2_1" toLane="2"/>
	<connection from="road_2_2_0" fromLane="2" to="road_3_2_1" toLane="1"/>
	<connection from="road_2_2_0" fromLane="2" to="road_3_2_1" toLane="0"/>
	<connection from="road_2_2_0" fromLane="0" to="road_3_2_3" toLane="2"/>
	<connection from="road_2_2_0" fromLane="0" to="road_3_2_3" toLane="1"/>
	<connection from="road_2_2_0" fromLane="0" to="road_3_2_3" toLane="0"/>
	<connection from="road_3_1_1" fromLane="0" to="road_3_2_0" toLane="2"/>
	<connection from="road_3_1_1" fromLane="0" to="road_3_2_0" toLane="1"/>
	<connection from="road_3_1_1" fromLane="0" to="road_3_2_0" toLane="0"/>
	<connection from="road_3_1_1" fromLane="1" to="road_3_2_1" toLane="2"/>
	<connection from="road_3_1_1" fromLane="1" to="road_3_2_1" toLane="1"/>
	<connection from="road_3_1_1" fromLane="1" to="road_3_2_1" toLane="0"/>
	<connection from="road_3_1_1" fromLane="2" to="road_3_2_2" toLane="2"/>
	<connection from="road_3_1_1" fromLane="2" to="road_3_2_2" toLane="1"/>
	<connection from="road_3_1_1" fromLane="2" to="road_3_2_2" toLane="0"/>
	<connection from="road_4_2_2" fromLane="0" to="road_3_2_1" toLane="2"/>
	<connection from="road_4_2_2" fromLane="0" to="road_3_2_1" toLane="1"/>
	<connection from="road_4_2_2" fromLane="0" to="road_3_2_1" toLane="0"/>
	<connection from="road_4_2_2" fromLane="1" to="road_3_2_2" toLane="2"/>
	<connection from="road_4_2_2" fromLane="1" to="road_3_2_2" toLane="1"/>
	<connection from="road_4_2_2" fromLane="1" to="road_3_2_2" toLane="0"/>
	<connection from="road_4_2_2" fromLane="2" to="road_3_2_3" toLane="2"/>
	<connection from="road_4_2_2" fromLane="2" to="road_3_2_3" toLane="1"/>
	<connection from="road_4_2_2" fromLane="2" to="road_3_2_3" toLane="0"/>
	<connection from="road_3_3_3" fromLane="2" to="road_3_2_0" toLane="2"/>
	<connection from="road_3_3_3" fromLane="2" to="road_3_2_0" toLane="1"/>
	<connection from="road_3_3_3" fromLane="2" to="road_3_2_0" toLane="0"/>
	<connection from="road_3_3_3" fromLane="0" to="road_3_2_2" toLane="2"/>
	<connection from="road_3_3_3" fromLane="0" to="road_3_2_2" toLane="1"/>
	<connection from="road_3_3_3" fromLane="0" to="road_3_2_2" toLane="0"/>
	<connection from="road_3_3_3" fromLane="1" to="road_3_2_3" toLane="2"/>
	<connection from="road_3_3_3" fromLane="1" to="road_3_2_3" toLane="1"/>
	<connection from="road_3_3_3" fromLane="1" to="road_3_2_3" toLane="0"/>
	<connection from="road_2_3_0" fromLane="1" to="road_3_3_0" toLane="2"/>
	<connection from="road_2_3_0" fromLane="1" to="road_3_3_0" toLane="1"/>
	<connection from="road_2_3_0" fromLane="1" to="road_3_3_0" toLane="0"/>
	<connection from="road_2_3_0" fromLane="2" to="road_3_3_1" toLane="2"/>
	<connection from="road_2_3_0" fromLane="2" to="road_3_3_1" toLane="1"/>
	<connection from="road_2_3_0" fromLane="2" to="road_3_3_1" toLane="0"/>
	<connection from="road_2_3_0" fromLane="0" to="road_3_3_3" toLane="2"/>
	<connection from="road_2_3_0" fromLane="0" to="road_3_3_3" toLane="1"/>
	<connection from="road_2_3_0" fromLane="0" to="road_3_3_3" toLane="0"/>
	<connection from="road_3_2_1" fromLane="0" to="road_3_3_0" toLane="2"/>
	<connection from="road_3_2_1" fromLane="0" to="road_3_3_0" toLane="1"/>
	<connection from="road_3_2_1" fromLane="0" to="road_3_3_0" toLane="0"/>
	<connection from="road_3_2_1" fromLane="1" to="road_3_3_1" toLane="2"/>
	<connection from="road_3_2_1" fromLane="1" to="road_3_3_1" toLane="1"/>
	<connection from="road_3_2_1" fromLane="1" to="road_3_3_1" toLane="0"/>
	<connection from="road_3_2_1" fromLane="2" to="road_3_3_2" toLane="2"/>
	<connection from="road_3_2_1" fromLane="2" to="road_3_3_2" toLane="1"/>
	<connection from="road_3_2_1" fromLane="2" to="road_3_3_2" toLane="0"/>
	<connection from="road_4_3_2" fromLane="0" to="road_3_3_1" toLane="2"/>
	<connection from="road_4_3_2" fromLane="0" to="road_3_3_1" toLane="1"/>
	<connection from="road_4_3_2" fromLane="0" to="road_3_3_1" toLane="0"/>
	<connection from="road_4_3_2" fromLane="1" to="road_3_3_2" toLane="2"/>
	<connection from="road_4_3_2" fromLane="1" to="road_3_3_2" toLane="1"/>
	<connection from="road_4_3_2" fromLane="1" to="road_3_3_2" toLane="0"/>
	<connection from="road_4_3_2" fromLane="2" to="road_3_3_3" toLane="2"/>
	<connection from="road_4_3_2" fromLane="2" to="road_3_3_3" toLane="1"/>
	<connection from="road_4_3_2" fromLane="2" to="road_3_3_3" toLane="0"/>
	<connection from="road_3_4_3" fromLane="2" to="road_3_3_0" toLane="2"/>
	<connection from="road_3_4_3" fromLane="2" to="road_3_3_0" toLane="1"/>
	<connection from="road_3_4_3" fromLane="2" to="road_3_3_0" toLane="0"/>
	<connection from="road_3_4_3" fromLane="0" to="road_3_3_2" toLane="2"/>
	<connection from="road_3_4_3" fromLane="0" to="road_3_3_2" toLane="1"/>
	<connection from="road_3_4_3" fromLane="0" to="road_3_3_2" toLane="0"/>
	<connection from="road_3_4_3" fromLane="1" to="road_3_3_3" toLane="2"/>
	<connection from="road_3_4_3" fromLane="1" to="road_3_3_3" toLane="1"/>
	<connection from="road_3_4_3" fromLane="1" to="road_3_3_3" toLane="0"/>
	<connection from="road_2_4_0" fromLane="1" to="road_3_4_0" toLane="2"/>
	<connection from="road_2_4_0" fromLane="1" to="road_3_4_0" toLane="1"/>
	<connection from="road_2_4_0" fromLane="1" to="road_3_4_0" toLane="0"/>
	<connection from="road_2_4_0" fromLane="2" to="road_3_4_1" toLane="2"/>
	<connection from="road_2_4_0" fromLane="2" to="road_3_4_1" toLane="1"/>
	<connection from="road_2_4_0" fromLane="2" to="road_3_4_1" toLane="0"/>
	<connection from="road_2_4_0" fromLane="0" to="road_3_4_3" toLane="2"/>
	<connection from="road_2_4_0" fromLane="0" to="road_3_4_3" toLane="1"/>
	<connection from="road_2_4_0" fromLane="0" to="road_3_4_3" toLane="0"/>
	<connection from="road_3_3_1" fromLane="0" to="road_3_4_0" toLane="2"/>
	<connection from="road_3_3_1" fromLane="0" to="road_3_4_0" toLane="1"/>
	<connection from="road_3_3_1" fromLane="0" to="road_3_4_0" toLane="0"/>