<?xml version="1.0" encoding="utf-8"?>
	<edges xmlns:xsi="http://www.w3.org/2001/XMLSchema-instance" xsi:noNamespaceSchemaLocation="http://sumo.dlr.de/xsd/edges_file.xsd">
		<edge from="intersection_0_1" id="road_0_1_0" numLanes="3" priority="-1" speed="11.11" to="intersection_1_1"/>
		<edge from="intersection_0_2" id="road_0_2_0" numLanes="3" priority="-1" speed="11.11" to="intersection_1_2"/>
		<edge from="intersection_0_3" id="road_0_3_0" numLanes="3" priority="-1" speed="11.11" to="intersection_1_3"/>
		<edge from="intersection_0_4" id="road_0_4_0" numLanes="3" priority="-1" speed="11.11" to="intersection_1_4"/>
		<edge from="intersection_1_0" id="road_1_0_1" numLanes="3" priority="-1" speed="11.11" to="intersection_1_1"/>
		<edge from="intersection_1_1" id="road_1_1_0" numLanes="3" priority="-1" speed="11.11" to="intersection_2_1"/>
		<edge from="intersection_1_1" id="road_1_1_1" numLanes="3" priority="-1" speed="11.11" to="intersection_1_2"/>
		<edge from="intersection_1_1" id="road_1_1_2" numLanes="3" priority="-1" speed="11.11" to="intersection_0_1"/>
		<edge from="intersection_1_1" id="road_1_1_3" numLanes="3" priority="-1" speed="11.11" to="intersection_1_0"/>
		<edge from="intersection_1_2" id="road_1_2_0" numLanes="3" priority="-1" speed="11.11" to="intersection_2_2"/>
		<edge from="intersection_1_2" id="road_1_2_1" numLanes="3" priority="-1" speed="11.11" to="intersection_1_3"/>
		<edge from="intersection_1_2" id="road_1_2_2" numLanes="3" priority="-1" speed="11.11" to="intersection_0_2"/>
		<edge from="intersection_1_2" id="road_1_2_3" numLanes="3" priority="-1" speed="11.11" to="intersection_1_1"/>
		<edge from="intersection_1_3" id="road_1_3_0" numLanes="3" priority="-1" speed="11.11" to="intersection_2_3"/>
		<edge from="intersection_1_3" id="road_1_3_1" numLanes="3" priority="-1" speed="11.11" to="intersection_1_4"/>
		<edge from="intersection_1_3" id="road_1_3_2" numLanes="3" priority="-1" speed="11.11" to="intersection_0_3"/>
		<edge from="intersection_1_3" id="road_1_3_3" numLanes="3" priority="-1" speed="11.11" to="intersection_1_2"/>
		<edge from="intersection_1_4" id="road_1_4_0" numLanes="3" priority="-1" speed="11.11" to="intersection_2_4"/>
		<edge from="intersection_1_4" id="road_1_4_1" numLanes="3" priority="-1" speed="11.11" to="intersection_1_5"/>
		<edge from="intersection_1_4" id="road_1_4_2" numLanes="3" priority="-1" speed="11.11" to="intersection_0_4"/>
		<edge from="intersection_1_4" id="road_1_4_3" numLanes="3" priority="-1" speed="11.11" to="intersection_1_3"/>
		<edge from="intersection_1_5" id="road_1_5_3" numLanes="3" priority="-1" speed="11.11" to="intersection_1_4"/>
		<edge from="intersection_2_0" id="road_2_0_1" numLanes="3" priority="-1" speed="11.11" to="intersection_2_1"/>
		<edge from="intersection_2_1" id="road_2_1_0" numLanes="3" priority="-1" speed="11.11" to="intersection_3_1"/>
		<edge from="intersection_2_1" id="road_2_1_1" numLanes="3" priority="-1" speed="11.11" to="intersection_2_2"/>
		<edge from="intersection_2_1" id="road_2_1_2" numLanes="3" priority="-1" speed="11.11" to="intersection_1_1"/>
		<edge from="intersection_2_1" id="road_2_1_3" numLanes="3" priority="-1" speed="11.11" to="intersection_2_0"/>
		<edge from="intersection_2_2" id="road_2_2_0" numLanes="3" priority="-1" speed="11.11" to="intersection_3_2"/>
		<edge from="intersection_2_2" id="road_2_2_1" numLanes="3" priority="-1" speed="11.11" to="intersection_2_3"/>
		<edge from="intersection_2_2" id="road_2_2_2" numLanes="3" priority="-1" speed="11.11" to="intersection_1_2"/>
		<edge from="intersection_2_2" id="road_2_2_3" numLanes="3" priority="-1" speed="11.11" to="intersection_2_1"/>
		<edge from="intersection_2_3" id="road_2_3_0" numLanes="3" priority="-1" speed="11.11" to="intersection_3_3"/>
		<edge from="intersection_2_3" id="road_2_3_1" numLanes="3" priority="-1" speed="11.11" to="intersection_2_4"/>
		<edge from="intersection_2_3" id="road_2_3_2" numLanes="3" priority="-1" speed="11.11" to="intersection_1_3"/>
		<edge from="intersection_2_3" id="road_2_3_3" numLanes="3" priority="-1" speed="11.11" to="intersection_2_2"/>
		<edge from="intersection_2_4" id="road_2_4_0" numLanes="3" priority="-1" speed="11.11" to="intersection_3_4"/>
		<edge from="intersection_2_4" id="road_2_4_1" numLanes="3" priority="-1" speed="11.11" to="intersection_2_5"/>
		<edge from="intersection_2_4" id="road_2_4_2" numLanes="3" priority="-1" speed="11.11" to="intersection_1_4"/>
		<edge from="intersection_2_4" id="road_2_4_3" numLanes="3" priority="-1" speed="11.11" to="intersection_2_3"/>
		<edge from="intersection_2_5" id="road_2_5_3" numLanes="3" priority="-1" speed="11.11" to="intersection_2_4"/>
		<edge from="intersection_3_0" id="road_3_0_1" numLanes="3" priority="-1" speed="11.11" to="intersection_3_1"/>
		<edge from="intersection_3_1" id="road_3_1_0" numLanes="3" priority="-1" speed="11.11" to="intersection_4_1"/>
		<edge from="intersection_3_1" id="road_3_1_1" numLanes="3" priority="-1" speed="11.11" to="intersection_3_2"/>
		<edge from="intersection_3_1" id="road_3_1_2" numLanes="3" priority="-1" speed="11.11" to="intersection_2_1"/>
		<edge from="intersection_3_1" id="road_3_1_3" numLanes="3" priority="-1" speed="11.11" to="intersection_3_0"/>
		<edge from="intersection_3_2" id="road_3_2_0" numLanes="3" priority="-1" speed="11.11" to="intersection_4_2"/>
		<edge from="intersection_3_2" id="road_3_2_1" numLanes="3" priority="-1" speed="11.11" to="intersection_3_3"/>
		<edge from="intersection_3_2" id="road_3_2_2" numLanes="3" priority="-1" speed="11.11" to="intersection_2_2"/>
		<edge from="intersection_3_2" id="road_3_2_3" numLanes="3" priority="-1" speed="11.11" to="intersection_3_1"/>
		<edge from="intersection_3_3" id="road_3_3_0" numLanes="3" priority="-1" speed="11.11" to="intersection_4_3"/>
		<edge from="intersection_3_3" id="road_3_3_1" numLanes="3" priority="-1" speed="11.11" to="intersection_3_4"/>
		<edge from="intersection_3_3" id="road_3_3_2" numLanes="3" priority="-1" speed="11.11" to="intersection_2_3"/>
		<edge from="intersection_3_3" id="road_3_3_3" numLanes="3" priority="-1" speed="11.11" to="intersection_3_2"/>
		<edge from="intersection_3_4" id="road_3_4_0" numLanes="3" priority="-1" speed="11.11" to="intersection_4_4"/>
		<edge from="intersection_3_4" id="road_3_4_1" numLanes="3" priority="-1" speed="11.11" to="intersection_3_5"/>
		<edge from="intersection_3_4" id="road_3_4_2" numLanes="3" priority="-1" speed="11.11" to="intersection_2_4"/>
		<edge from="intersection_3_4" id="road_3_4_3" numLanes="3" priority="-1" speed="11.11" to="intersection_3_3"/>
		<edge from="intersection_3_5" id="road_3_5_3" numLanes="3" priority="-1" speed="11.11" to="intersection_3_4"/>
		<edge from="intersection_4_0" id="road_4_0_1" numLanes="3" priority="-1" speed="11.11" to="intersection_4_1"/>
		<edge from="intersection_4_1" id="road_4_1_0" numLanes="3" priority="-1" speed="11.11" to="intersection_5_1"/>
		<edge from="intersection_4_1" id="road_4_1_1" numLanes="3" priority="-1" speed="11.11" to="intersection_4_2"/>
		<edge from="intersection_4_1" id="road_4_1_2" numLanes="3" priority="-1" speed="11.11" to="intersection_3_1"/>
		<edge from="intersection_4_1" id="road_4_1_3" numLanes="3" priority="-1" speed="11.11" to="intersection_4_0"/>
		<edge from="intersection_4_2" id="road_4_2_0" numLanes="3" priority="-1" speed="11.11" to="intersection_5_2"/>
		<edge from="intersection_4_2" id="road_4_2_1" numLanes="3" priority="-1" speed="11.11" to="intersection_4_3"/>
		<edge from="intersection_4_2" id="road_4_2_2" numLanes="3" priority="-1" speed="11.11" to="intersection_3_2"/>
		<edge from="intersection_4_2" id="road_4_2_3" numLanes="3" priority="-1" speed="11.11" to="intersection_4_1"/>
		<edge from="intersection_4_3" id="road_4_3_0" numLanes="3" priority="-1" speed="11.11" to="intersection_5_3"/>
		<edge from="intersection_4_3" id="road_4_3_1" numLanes="3" priority="-1" speed="11.11" to="intersection_4_4"/>
		<edge from="intersection_4_3" id="road_4_3_2" numLanes="3" priority="-1" speed="11.11" to="intersection_3_3"/>
		<edge from="intersection_4_3" id="road_4_3_3" numLanes="3" priority="-1" speed="11.11" to="intersection_4_2"/>
		<edge from="intersection_4_4" id="road_4_4_0" numLanes="3" priority="-1" speed="11.11" to="intersection_5_4"/>
		<edge from="intersection_4_4" id="road_4_4_1" numLanes="3" priority="-1" speed="11.11" to="intersection_4_5"/>
		<edge from="intersection_4_4" id="road_4_4_2" numLanes="3" priority="-1" speed="11.11" to="intersection_3_4"/>
		<edge from="intersection_4_4" id="road_4_4_3" numLanes="3" priority="-1" speed="11.11" to="intersection_4_3"/>
		<edge from="intersection_4_5" id="road_4_5_3" numLanes="3" priority="-1" speed="11.11" to="intersection_4_4"/>
		<edge from="intersection_5_1" id="road_5_1_2" numLanes="3" priority="-1" speed="11.11" to="intersection_4_1"/>
		<edge from="intersection_5_2" id="road_5_2_2" numLanes="3" priority="-1" speed="11.11" to="intersection_4_2"/>
		<edge from="intersection_5_3" id="road_5_3_2" numLanes="3" priority="-1" speed="11.11" to="intersection_4_3"/>
		<edge from="intersection_5_4" id="road_5_4_2" numLanes="3" priority="-1" speed="11.11" to="intersection_4_4"/>
	</edges>
