<?xml version="1.0" encoding="utf-8"?>
	<routes xmlns:xsi="http://www.w3.org/2001/XMLSchema-instance" xsi:noNamespaceSchemaLocation="http://sumo.dlr.de/xsd/routes_file.xsd">
		<vType accel="2.0" decel="4.5" id="pkw" length="5.0" maxSpeed="11.111" minGap="2.5" width="2.0"/>
		<vehicle depart="0" departLane="best" id="0">
			<route edges="road_4_0_1 road_4_1_1 road_4_2_0"/>
		</vehicle>
		<vehicle depart="0" departLane="best" id="1">
			<route edges="road_0_1_0 road_1_1_0 road_2_1_0 road_3_1_3"/>
		</vehicle>
		<vehicle depart="0" departLane="best" id="2">
			<route edges="road_5_4_2 road_4_4_2 road_3_4_2 road_2_4_2 road_1_4_1"/>
		</vehicle>
		<vehicle depart="0" departLane="best" id="3">
			<route edges="road_0_2_0 road_1_2_3 road_1_1_3"/>
		</vehicle>
		<vehicle depart="0" departLane="best" id="4">
			<route edges="road_5_2_2 road_4_2_2 road_3_2_2 road_2_2_2 road_1_2_1 road_1_3_1 road_1_4_0 road_2_4_3 road_2_3_3 road_2_2_3 road_2_1_3"/>
		</vehicle>
		<vehicle depart="0" departLane="best" id="5">
			<route edges="road_1_0_1 road_1_1_1 road_1_2_1 road_1_3_1 road_1_4_1"/>
		</vehicle>
		<vehicle depart="0" departLane="best" id="6">
			<route edges="road_1_5_3 road_1_4_3 road_1_3_3 road_1_2_2"/>
		</vehicle>
		<vehicle depart="0" departLane="best" id="7">
			<route edges="road_0_4_0 road_1_4_0 road_2_4_0 road_3_4_3 road_3_3_2 road_2_3_1"/>
		</vehicle>
		<vehicle depart="0" departLane="best" id="8">
			<route edges="road_5_3_2 road_4_3_1 road_4_4_0"/>
		</vehicle>
		<vehicle depart="4" departLane="best" id="9">
			<route edges="road_0_4_0 road_1_4_0 road_2_4_0 road_3_4_0 road_4_4_0"/>
		</vehicle>
		<vehicle depart="7" departLane="best" id="10">
			<route edges="road_5_4_2 road_4_4_2 road_3_4_2 road_2_4_1"/>
		</vehicle>
		<vehicle depart="8" departLane="best" id="11">
			<route edges="road_0_4_0 road_1_4_1"/>
		</vehicle>
		<vehicle depart="10" departLane="best" id="12">
			<route edges="road_0_1_0 road_1_1_0 road_2_1_0 road_3_1_3"/>
		</vehicle>
		<vehicle depart="12" departLane="best" id="13">
			<route edges="road_0_4_0 road_1_4_0 road_2_4_3 road_2_3_0 road_3_3_0 road_4_3_0"/>
		</vehicle>
		<vehicle depart="13" departLane="best" id="14">
			<route edges="road_4_0_1 road_4_1_2 road_3_1_2 road_2_1_2 road_1_1_3"/>
		</vehicle>
		<vehicle depart="13" departLane="best" id="15">
			<route edges="road_5_3_2 road_4_3_1 road_4_4_1"/>
		</vehicle>
		<vehicle depart="14" departLane="best" id="16">
			<route edges="road_5_4_2 road_4_4_3 road_4_3_2 road_3_3_2 road_2_3_2 road_1_3_2"/>
		</vehicle>
		<vehicle depart="16" departLane="best" id="17">
			<route edges="road_0_4_0 road_1_4_0 road_2_4_0 road_3_4_3 road_3_3_3 road_3_2_2 road_2_2_2 road_1_2_2"/>
		</vehicle>
		<vehicle depart="20" departLane="best" id="18">
			<route edges="road_0_1_0 road_1_1_0 road_2_1_0 road_3_1_0 road_4_1_3"/>
		</vehicle>
		<vehicle depart="20" departLane="best" id="19">
			<route edges="road_0_4_0 road_1_4_3 road_1_3_0 road_2_3_0 road_3_3_0 road_4_3_0"/>
		</vehicle>
		<vehicle depart="21" departLane="best" id="20">
			<route edges="road_5_4_2 road_4_4_2 road_3_4_1"/>
		</vehicle>
		<vehicle depart="23" departLane="best" id="21">
			<route edges="road_1_0_1 road_1_1_1 road_1_2_1 road_1_3_1 road_1_4_1"/>
		</vehicle>
		<vehicle depart="23" departLane="best" id="22">
			<route edges="road_1_5_3 road_1_4_3 road_1_3_0 road_2_3_1 road_2_4_1"/>
		</vehicle>
		<vehicle depart="24" departLane="best" id="23">
			<route edges="road_0_4_0 road_1_4_3 road_1_3_3 road_1_2_3 road_1_1_2"/>
		</vehicle>
		<vehicle depart="26" departLane="best" id="24">
			<route edges="road_4_0_1 road_4_1_1 road_4_2_1 road_4_3_1 road_4_4_1"/>
		</vehicle>
		<vehicle depart="26" departLane="best" id="25">
			<route edges="road_5_3_2 road_4_3_1 road_4_4_1"/>
		</vehicle>
		<vehicle depart="28" departLane="best" id="26">
			<route edges="road_5_4_2 road_4_4_2 road_3_4_2 road_2_4_1"/>
		</vehicle>
		<vehicle depart="28" departLane="best" id="27">
			<route edges="road_0_4_0 road_1_4_3 road_1_3_3 road_1_2_2"/>
		</vehicle>
		<vehicle depart="30" departLane="best" id="28">
			<route edges="road_0_1_0 road_1_1_3"/>
		</vehicle>
		<vehicle depart="32" departLane="best" id="29">
			<route edges="road_0_4_0 road_1_4_0 road_2_4_1"/>
		</vehicle>
		<vehicle depart="35" departLane="best" id="30">
			<route edges="road_5_4_2 road_4_4_2 road_3_4_2 road_2_4_3 road_2_3_3 road_2_2_3 road_2_1_3"/>
		</vehicle>
		<vehicle depart="36" departLane="best" id="31">
			<route edges="road_0_4_0 road_1_4_3 road_1_3_2"/>
		</vehicle>
		<vehicle depart="37" departLane="best" id="32">
			<route edges="road_0_2_0 road_1_2_0 road_2_2_3 road_2_1_2 road_1_1_1 road_1_2_1 road_1_3_1 road_1_4_1"/>
		</vehicle>
		<vehicle depart="37" departLane="best" id="33">
			<route edges="road_5_2_2 road_4_2_2 road_3_2_2 road_2_2_1 road_2_3_1 road_2_4_1"/>
		</vehicle>
		<vehicle depart="39" departLane="best" id="34">
			<route edges="road_4_0_1 road_4_1_1 road_4_2_1 road_4_3_1 road_4_4_0"/>
		</vehicle>
		<vehicle depart="39" departLane="best" id="35">
			<route edges="road_5_3_2 road_4_3_2 road_3_3_2 road_2_3_2 road_1_3_3 road_1_2_3 road_1_1_3"/>
		</vehicle>
		<vehicle depart="40" departLane="best" id="36">
			<route edges="road_0_1_0 road_1_1_0 road_2_1_3"/>
		</vehicle>
		<vehicle depart="40" departLane="best" id="37">
			<route edges="road_0_4_0 road_1_4_0 road_2_4_0 road_3_4_0 road_4_4_0"/>
		</vehicle>
		<vehicle depart="42" departLane="best" id="38">
			<route edges="road_5_4_2 road_4_4_1"/>
		</vehicle>
		<vehicle depart="44" departLane="best" id="39">
			<route edges="road_0_4_0 road_1_4_0 road_2_4_3 road_2_3_3 road_2_2_3 road_2_1_3"/>
		</vehicle>
		<vehicle depart="46" departLane="best" id="40">
			<route edges="road_1_0_1 road_1_1_0 road_2_1_0 road_3_1_0 road_4_1_0"/>
		</vehicle>
		<vehicle depart="46" departLane="best" id="41">
			<route edges="road_1_5_3 road_1_4_3 road_1_3_3 road_1_2_3 road_1_1_0 road_2_1_0 road_3_1_3"/>
		</vehicle>
		<vehicle depart="48" departLane="best" id="42">
			<route edges="road_0_4_0 road_1_4_0 road_2_4_1"/>
		</vehicle>
		<vehicle depart="49" departLane="best" id="43">
			<route edges="road_5_4_2 road_4_4_2 road_3_4_2 road_2_4_1"/>
		</vehicle>
		<vehicle depart="50" departLane="best" id="44">
			<route edges="road_0_1_0 road_1_1_1 road_1_2_0 road_2_2_0 road_3_2_0 road_4_2_0"/>
		</vehicle>
		<vehicle depart="52" departLane="best" id="45">
			<route edges="road_4_0_1 road_4_1_2 road_3_1_2 road_2_1_2 road_1_1_2"/>
		</vehicle>
		<vehicle depart="52" departLane="best" id="46">
			<route edges="road_0_4_0 road_1_4_0 road_2_4_1"/>
		</vehicle>
		<vehicle depart="52" departLane="best" id="47">
			<route edges="road_5_3_2 road_4_3_2 road_3_3_1 road_3_4_0 road_4_4_0"/>
		</vehicle>
		<vehicle depart="56" departLane="best" id="48">
			<route edges="road_5_4_2 road_4_4_1"/>
		</vehicle>
		<vehicle depart="56" departLane="best" id="49">
			<route edges="road_0_4_0 road_1_4_0 road_2_4_0 road_3_4_3 road_3_3_2 road_2_3_3 road_2_2_2 road_1_2_2"/>
		</vehicle>
		<vehicle depart="60" departLane="best" id="50">
			<route edges="road_0_1_0 road_1_1_1 road_1_2_0 road_2_2_0 road_3_2_0 road_4_2_0"/>
		</vehicle>
		<vehicle depart="60" departLane="best" id="51">
			<route edges="road_0_4_0 road_1_4_0 road_2_4_0 road_3_4_0 road_4_4_0"/>
		</vehicle>
		<vehicle depart="63" departLane="best" id="52">
			<route edges="road_5_4_2 road_4_4_2 road_3_4_2 road_2_4_2 road_1_4_1"/>
		</vehicle>
		<vehicle depart="64" departLane="best" id="53">
			<route edges="road_0_4_0 road_1_4_0 road_2_4_0 road_3_4_0 road_4_4_0"/>
		</vehicle>
		<vehicle depart="65" departLane="best" id="54">
			<route edges="road_4_0_1 road_4_1_1 road_4_2_1 road_4_3_0"/>
		</vehicle>
		<vehicle depart="65" departLane="best" id="55">
			<route edges="road_5_3_2 road_4_3_2 road_3_3_1 road_3_4_1"/>
		</vehicle>
		<vehicle depart="68" departLane="best" id="56">
			<route edges="road_0_4_0 road_1_4_3 road_1_3_3 road_1_2_2"/>
		</vehicle>
		<vehicle depart="69" departLane="best" id="57">
			<route edges="road_1_0_1 road_1_1_1 road_1_2_1 road_1_3_1 road_1_4_1"/>
		</vehicle>
		<vehicle depart="69" departLane="best" id="58">
			<route edges="road_1_5_3 road_1_4_3 road_1_3_2"/>
		</vehicle>
		<vehicle depart="70" departLane="best" id="59">
			<route edges="road_0_1_0 road_1_1_0 road_2_1_0 road_3_1_1 road_3_2_1 road_3_3_1 road_3_4_1"/>
		</vehicle>
		<vehicle depart="70" departLane="best" id="60">
			<route edges="road_5_4_2 road_4_4_1"/>
		</vehicle>
		<vehicle depart="72" departLane="best" id="61">
			<route edges="road_0_4_0 road_1_4_0 road_2_4_3 road_2_3_3 road_2_2_3 road_2_1_3"/>
		</vehicle>
		<vehicle depart="74" departLane="best" id="62">
			<route edges="road_0_2_0 road_1_2_0 road_2_2_0 road_3_2_0 road_4_2_0"/>
		</vehicle>
		<vehicle depart="74" departLane="best" id="63">
			<route edges="road_5_2_2 road_4_2_2 road_3_2_2 road_2_2_2 road_1_2_2"/>
		</vehicle>
		<vehicle depart="76" departLane="best" id="64">
			<route edges="road_0_4_0 road_1_4_0 road_2_4_0 road_3_4_0 road_4_4_0"/>
		</vehicle>
		<vehicle depart="77" departLane="best" id="65">
			<route edges="road_5_4_2 road_4_4_2 road_3_4_2 road_2_4_1"/>
		</vehicle>
		<vehicle depart="78" departLane="best" id="66">
			<route edges="road_4_0_1 road_4_1_0"/>
		</vehicle>
		<vehicle depart="78" departLane="best" id="67">
			<route edges="road_5_3_2 road_4_3_2 road_3_3_2 road_2_3_2 road_1_3_1 road_1_4_0 road_2_4_0 road_3_4_3"/>
		</vehicle>
		<vehicle depart="80" departLane="best" id="68">
			<route edges="road_0_1_0 road_1_1_0 road_2_1_3"/>
		</vehicle>
		<vehicle depart="80" departLane="best" id="69">
			<route edges="road_0_4_0 road_1_4_1"/>
		</vehicle>
		<vehicle depart="84" departLane="best" id="70">
			<route edges="road_5_4_2 road_4_4_2 road_3_4_1"/>
		</vehicle>
		<vehicle depart="84" departLane="best" id="71">
			<route edges="road_0_4_0 road_1_4_0 road_2_4_3 road_2_3_2 road_1_3_2"/>
		</vehicle>
		<vehicle depart="88" departLane="best" id="72">
			<route edges="road_0_4_0 road_1_4_0 road_2_4_3 road_2_3_0 road_3_3_1 road_3_4_0 road_4_4_0"/>
		</vehicle>
		<vehicle depart="90" departLane="best" id="73">
			<route edges="road_0_1_0 road_1_1_0 road_2_1_3"/>
		</vehicle>
		<vehicle depart="91" departLane="best" id="74">
			<route edges="road_4_0_1 road_4_1_1 road_4_2_1 road_4_3_0"/>
		</vehicle>
		<vehicle depart="91" departLane="best" id="75">
			<route edges="road_5_4_2 road_4_4_1"/>
		</vehicle>
		<vehicle depart="91" departLane="best" id="76">
			<route edges="road_5_3_2 road_4_3_2 road_3_3_1 road_3_4_1"/>
		</vehicle>
		<vehicle depart="92" departLane="best" id="77">
			<route edges="road_1_0_1 road_1_1_1 road_1_2_0 road_2_2_0 road_3_2_0 road_4_2_0"/>
		</vehicle>
		<vehicle depart="92" departLane="best" id="78">
			<route edges="road_1_5_3 road_1_4_3 road_1_3_2"/>
		</vehicle>
		<vehicle depart="92" departLane="best" id="79">
			<route edges="road_0_4_0 road_1_4_3 road_1_3_3 road_1_2_3 road_1_1_3"/>
		</vehicle>
		<vehicle depart="96" departLane="best" id="80">
			<route edges="road_0_4_0 road_1_4_3 road_1_3_3 road_1_2_3 road_1_1_2"/>
		</vehicle>
		<vehicle depart="98" departLane="best" id="81">
			<route edges="road_5_4_2 road_4_4_2 road_3_4_3 road_3_3_3 road_3_2_2 road_2_2_3 road_2_1_3"/>
		</vehicle>
		<vehicle depart="100" departLane="best" id="82">
			<route edges="road_0_1_0 road_1_1_0 road_2_1_0 road_3_1_1 road_3_2_0 road_4_2_0"/>
		</vehicle>
		<vehicle depart="100" departLane="best" id="83">
			<route edges="road_0_4_0 road_1_4_0 road_2_4_0 road_3_4_1"/>
		</vehicle>
		<vehicle depart="104" departLane="best" id="84">
			<route edges="road_4_0_1 road_4_1_0"/>
		</vehicle>
		<vehicle depart="104" departLane="best" id="85">
			<route edges="road_0_4_0 road_1_4_0 road_2_4_0 road_3_4_0 road_4_4_0"/>
		</vehicle>
		<vehicle depart="104" departLane="best" id="86">
			<route edges="road_5_3_2 road_4_3_2 road_3_3_1 road_3_4_0 road_4_4_3"/>
		</vehicle>
		<vehicle depart="105" departLane="best" id="87">
			<route edges="road_5_4_2 road_4_4_2 road_3_4_2 road_2_4_1"/>
		</vehicle>
		<vehicle depart="108" departLane="best" id="88">
			<route edges="road_0_4_0 road_1_4_0 road_2_4_0 road_3_4_0 road_4_4_3 road_4_3_3 road_4_2_3 road_4_1_2 road_3_1_1 road_3_2_1 road_3_3_1 road_3_4_2 road_2_4_2 road_1_4_1"/>
		</vehicle>
		<vehicle depart="110" departLane="best" id="89">
			<route edges="road_0_1_0 road_1_1_0 road_2_1_3"/>
		</vehicle>
		<vehicle depart="111" departLane="best" id="90">
			<route edges="road_0_2_0 road_1_2_1 road_1_3_1 road_1_4_0 road_2_4_0 road_3_4_0 road_4_4_0"/>
		</vehicle>
		<vehicle depart="111" departLane="best" id="91">
			<route edges="road_5_2_2 road_4_2_2 road_3_2_2 road_2_2_1 road_2_3_1 road_2_4_2 road_1_4_2"/>
		</vehicle>
		<vehicle depart="112" departLane="best" id="92">
			<route edges="road_5_4_2 road_4_4_2 road_3_4_2 road_2_4_2 road_1_4_2"/>
		</vehicle>
		<vehicle depart="112" departLane="best" id="93">
			<route edges="road_0_4_0 road_1_4_1"/>
		</vehicle>
		<vehicle depart="115" departLane="best" id="94">
			<route edges="road_1_0_1 road_1_1_0 road_2_1_0 road_3_1_3"/>
		</vehicle>
		<vehicle depart="115" departLane="best" id="95">
			<route edges="road_1_5_3 road_1_4_3 road_1_3_2"/>
		</vehicle>
		<vehicle depart="116" departLane="best" id="96">
			<route edges="road_0_4_0 road_1_4_0 road_2_4_0 road_3_4_1"/>
		</vehicle>
		<vehicle depart="117" departLane="best" id="97">
			<route edges="road_4_0_1 road_4_1_2 road_3_1_3"/>
		</vehicle>
		<vehicle depart="117" departLane="best" id="98">
			<route edges="road_5_3_2 road_4_3_1 road_4_4_0"/>
		</vehicle>
		<vehicle depart="119" departLane="best" id="99">
			<route edges="road_5_4_2 road_4_4_2 road_3_4_2 road_2_4_1"/>
		</vehicle>
		<vehicle depart="120" departLane="best" id="100">
			<route edges="road_0_1_0 road_1_1_0 road_2_1_0 road_3_1_0 road_4_1_3"/>
		</vehicle>
		<vehicle depart="120" departLane="best" id="101">
			<route edges="road_0_4_0 road_1_4_0 road_2_4_0 road_3_4_3 road_3_3_3 road_3_2_3 road_3_1_2 road_2_1_3"/>
		</vehicle>
		<vehicle depart="124" departLane="best" id="102">
			<route edges="road_0_4_0 road_1_4_3 road_1_3_3 road_1_2_3 road_1_1_0 road_2_1_3"/>
		</vehicle>
		<vehicle depart="126" departLane="best" id="103">
			<route edges="road_5_4_2 road_4_4_2 road_3_4_2 road_2_4_2 road_1_4_2"/>
		</vehicle>
		<vehicle depart="128" departLane="best" id="104">
			<route edges="road_0_4_0 road_1_4_0 road_2_4_0 road_3_4_0 road_4_4_0"/>
		</vehicle>
		<vehicle depart="130" departLane="best" id="105">
			<route edges="road_4_0_1 road_4_1_1 road_4_2_0"/>
		</vehicle>
		<vehicle depart="130" departLane="best" id="106">
			<route edges="road_0_1_0 road_1_1_3"/>
		</vehicle>
		<vehicle depart="130" departLane="best" id="107">
			<route edges="road_5_3_2 road_4_3_3 road_4_2_3 road_4_1_2 road_3_1_2 road_2_1_2 road_1_1_1 road_1_2_1 road_1_3_1 road_1_4_1"/>
		</vehicle>
		<vehicle depart="132" departLane="best" id="108">
			<route edges="road_0_4_0 road_1_4_0 road_2_4_0 road_3_4_3 road_3_3_0 road_4_3_0"/>
		</vehicle>
		<vehicle depart="133" departLane="best" id="109">
			<route edges="road_5_4_2 road_4_4_2 road_3_4_2 road_2_4_2 road_1_4_1"/>
		</vehicle>
		<vehicle depart="136" departLane="best" id="110">
			<route edges="road_0_4_0 road_1_4_0 road_2_4_0 road_3_4_3 road_3_3_3 road_3_2_2 road_2_2_2 road_1_2_1 road_1_3_1"/>
		</vehicle>
		<vehicle depart="138" departLane="best" id="111">
			<route edges="road_1_0_1 road_1_1_1 road_1_2_1 road_1_3_1 road_1_4_1"/>
		</vehicle>
		<vehicle depart="138" departLane="best" id="112">
			<route edges="road_1_5_3 road_1_4_2"/>
		</vehicle>
		<vehicle depart="140" departLane="best" id="113">
			<route edges="road_0_1_0 road_1_1_0 road_2_1_3"/>
		</vehicle>
		<vehicle depart="140" departLane="best" id="114">
			<route edges="road_5_4_2 road_4_4_2 road_3_4_1"/>
		</vehicle>
		<vehicle depart="140" departLane="best" id="115">
			<route edges="road_0_4_0 road_1_4_1"/>
		</vehicle>
		<vehicle depart="143" departLane="best" id="116">
			<route edges="road_4_0_1 road_4_1_2 road_3_1_2 road_2_1_1 road_2_2_1 road_2_3_1 road_2_4_1"/>
		</vehicle>
		<vehicle depart="143" departLane="best" id="117">
			<route edges="road_5_3_2 road_4_3_3 road_4_2_3 road_4_1_2 road_3_1_1 road_3_2_1 road_3_3_1 road_3_4_1"/>
		</vehicle>
		<vehicle depart="144" departLane="best" id="118">
			<route edges="road_0_4_0 road_1_4_1"/>
		</vehicle>
		<vehicle depart="147" departLane="best" id="119">
			<route edges="road_5_4_2 road_4_4_2 road_3_4_2 road_2_4_1"/>
		</vehicle>
		<vehicle depart="148" departLane="best" id="120">
			<route edges="road_0_2_0 road_1_2_0 road_2_2_1 road_2_3_1 road_2_4_1"/>
		</vehicle>
		<vehicle depart="148" departLane="best" id="121">
			<route edges="road_5_2_2 road_4_2_2 road_3_2_2 road_2_2_1 road_2_3_0 road_3_3_1 road_3_4_1"/>
		</vehicle>
		<vehicle depart="148" departLane="best" id="122">
			<route edges="road_0_4_0 road_1_4_0 road_2_4_0 road_3_4_3 road_3_3_2 road_2_3_1 road_2_4_1"/>
		</vehicle>
		<vehicle depart="150" departLane="best" id="123">
			<route edges="road_0_1_0 road_1_1_1 road_1_2_0 road_2_2_0 road_3_2_0 road_4_2_3 road_4_1_2 road_3_1_1 road_3_2_1 road_3_3_2 road_2_3_1 road_2_4_0 road_3_4_3 road_3_3_3 road_3_2_2 road_2_2_1"/>
		</vehicle>
		<vehicle depart="152" departLane="best" id="124">
			<route edges="road_0_4_0 road_1_4_0 road_2_4_0 road_3_4_0 road_4_4_3 road_4_3_3 road_4_2_3 road_4_1_2 road_3_1_2 road_2_1_1 road_2_2_1 road_2_3_1 road_2_4_1"/>
		</vehicle>
		<vehicle depart="154" departLane="best" id="125">
			<route edges="road_5_4_2 road_4_4_2 road_3_4_1"/>
		</vehicle>
		<vehicle depart="156" departLane="best" id="126">
			<route edges="road_4_0_1 road_4_1_1 road_4_2_0"/>
		</vehicle>
		<vehicle depart="156" departLane="best" id="127">
			<route edges="road_0_4_0 road_1_4_3 road_1_3_3 road_1_2_3 road_1_1_0 road_2_1_1 road_2_2_1 road_2_3_0 road_3_3_0 road_4_3_0"/>
		</vehicle>
		<vehicle depart="156" departLane="best" id="128">
			<route edges="road_5_3_2 road_4_3_2 road_3_3_2 road_2_3_2 road_1_3_2"/>
		</vehicle>
		<vehicle depart="160" departLane="best" id="129">
			<route edges="road_0_1_0 road_1_1_3"/>
		</vehicle>
		<vehicle depart="160" departLane="best" id="130">
			<route edges="road_0_4_0 road_1_4_1"/>
		</vehicle>
		<vehicle depart="161" departLane="best" id="131">
			<route edges="road_5_4_2 road_4_4_2 road_3_4_2 road_2_4_1"/>
		</vehicle>
		<vehicle depart="161" departLane="best" id="132">
			<route edges="road_1_0_1 road_1_1_1 road_1_2_1 road_1_3_1 road_1_4_0 road_2_4_3 road_2_3_3 road_2_2_3 road_2_1_3"/>
		</vehicle>
		<vehicle depart="161" departLane="best" id="133">
			<route edges="road_1_5_3 road_1_4_3 road_1_3_3 road_1_2_3 road_1_1_3"/>
		</vehicle>
		<vehicle depart="164" departLane="best" id="134">
			<route edges="road_0_4_0 road_1_4_0 road_2_4_3 road_2_3_2 road_1_3_2"/>
		</vehicle>
		<vehicle depart="168" departLane="best" id="135">
			<route edges="road_5_4_2 road_4_4_2 road_3_4_1"/>
		</vehicle>
		<vehicle depart="168" departLane="best" id="136">
			<route edges="road_0_4_0 road_1_4_0 road_2_4_1"/>
		</vehicle>
		<vehicle depart="169" departLane="best" id="137">
			<route edges="road_4_0_1 road_4_1_2 road_3_1_1 road_3_2_0 road_4_2_3 road_4_1_3"/>
		</vehicle>
		<vehicle depart="169" departLane="best" id="138">
			<route edges="road_5_3_2 road_4_3_2 road_3_3_1 road_3_4_1"/>
		</vehicle>
		<vehicle depart="170" departLane="best" id="139">
			<route edges="road_0_1_0 road_1_1_3"/>
		</vehicle>
		<vehicle depart="172" departLane="best" id="140">
			<route edges="road_0_4_0 road_1_4_3 road_1_3_3 road_1_2_2"/>
		</vehicle>
		<vehicle depart="175" departLane="best" id="141">
			<route edges="road_5_4_2 road_4_4_1"/>
		</vehicle>
		<vehicle depart="176" departLane="best" id="142">
			<route edges="road_0_4_0 road_1_4_3 road_1_3_3 road_1_2_3 road_1_1_2"/>
		</vehicle>
		<vehicle depart="180" departLane="best" id="143">
			<route edges="road_0_1_0 road_1_1_0 road_2_1_0 road_3_1_0 road_4_1_1 road_4_2_0"/>
		</vehicle>
		<vehicle depart="180" departLane="best" id="144">
			<route edges="road_0_4_0 road_1_4_0 road_2_4_0 road_3_4_0 road_4_4_0"/>
		</vehicle>
		<vehicle depart="182" departLane="best" id="145">
			<route edges="road_4_0_1 road_4_1_0"/>
		</vehicle>
		<vehicle depart="182" departLane="best" id="146">
			<route edges="road_5_4_2 road_4_4_3 road_4_3_3 road_4_2_3 road_4_1_2 road_3_1_3"/>
		</vehicle>
		<vehicle depart="182" departLane="best" id="147">
			<route edges="road_5_3_2 road_4_3_1 road_4_4_1"/>
		</vehicle>
		<vehicle depart="184" departLane="best" id="148">
			<route edges="road_1_0_1 road_1_1_0 road_2_1_0 road_3_1_0 road_4_1_3"/>
		</vehicle>
		<vehicle depart="184" departLane="best" id="149">
			<route edges="road_1_5_3 road_1_4_3 road_1_3_2"/>
		</vehicle>
		<vehicle depart="184" departLane="best" id="150">
			<route edges="road_0_4_0 road_1_4_0 road_2_4_3 road_2_3_3 road_2_2_2 road_1_2_1 road_1_3_0"/>
		</vehicle>
		<vehicle depart="185" departLane="best" id="151">
			<route edges="road_0_2_0 road_1_2_0 road_2_2_3 road_2_1_3"/>
		</vehicle>
		<vehicle depart="185" departLane="best" id="152">
			<route edges="road_5_2_2 road_4_2_2 road_3_2_2 road_2_2_1 road_2_3_1 road_2_4_0 road_3_4_3 road_3_3_3"/>
		</vehicle>
		<vehicle depart="188" departLane="best" id="153">
			<route edges="road_0_4_0 road_1_4_0 road_2_4_3 road_2_3_2 road_1_3_2"/>
		</vehicle>
		<vehicle depart="189" departLane="best" id="154">
			<route edges="road_5_4_2 road_4_4_1"/>
		</vehicle>
		<vehicle depart="190" departLane="best" id="155">
			<route edges="road_0_1_0 road_1_1_3"/>
		</vehicle>
		<vehicle depart="192" departLane="best" id="156">
			<route edges="road_0_4_0 road_1_4_3 road_1_3_2"/>
		</vehicle>
		<vehicle depart="195" departLane="best" id="157">
			<route edges="road_4_0_1 road_4_1_1 road_4_2_1 road_4_3_0"/>
		</vehicle>
		<vehicle depart="195" departLane="best" id="158">
			<route edges="road_5_3_2 road_4_3_2 road_3_3_2 road_2_3_3 road_2_2_2 road_1_2_3 road_1_1_0 road_2_1_0 road_3_1_3"/>
		</vehicle>
		<vehicle depart="196" departLane="best" id="159">
			<route edges="road_5_4_2 road_4_4_2 road_3_4_1"/>
		</vehicle>
		<vehicle depart="196" departLane="best" id="160">
			<route edges="road_0_4_0 road_1_4_0 road_2_4_1"/>
		</vehicle>
		<vehicle depart="200" departLane="best" id="161">
			<route edges="road_0_1_0 road_1_1_0 road_2_1_0 road_3_1_0 road_4_1_0"/>
		</vehicle>
		<vehicle depart="200" departLane="best" id="162">
			<route edges="road_0_4_0 road_1_4_3 road_1_3_3 road_1_2_3 road_1_1_0 road_2_1_0 road_3_1_0 road_4_1_3"/>
		</vehicle>
		<vehicle depart="203" departLane="best" id="163">
			<route edges="road_5_4_2 road_4_4_2 road_3_4_2 road_2_4_1"/>
		</vehicle>
		<vehicle depart="204" departLane="best" id="164">
			<route edges="road_0_4_0 road_1_4_1"/>
		</vehicle>
		<vehicle depart="207" departLane="best" id="165">
			<route edges="road_1_0_1 road_1_1_1 road_1_2_1 road_1_3_0 road_2_3_3 road_2_2_2 road_1_2_2"/>
		</vehicle>
		<vehicle depart="207" departLane="best" id="166">
			<route edges="road_1_5_3 road_1_4_3 road_1_3_3 road_1_2_3 road_1_1_0 road_2_1_1 road_2_2_1 road_2_3_1 road_2_4_0 road_3_4_1"/>
		</vehicle>
		<vehicle depart="208" departLane="best" id="167">
			<route edges="road_4_0_1 road_4_1_1 road_4_2_1 road_4_3_1 road_4_4_2 road_3_4_2 road_2_4_2 road_1_4_2"/>
		</vehicle>
		<vehicle depart="208" departLane="best" id="168">
			<route edges="road_0_4_0 road_1_4_0 road_2_4_0 road_3_4_0 road_4_4_0"/>
		</vehicle>
		<vehicle depart="208" departLane="best" id="169">
			<route edges="road_5_3_2 road_4_3_1 road_4_4_0"/>
		</vehicle>
		<vehicle depart="210" departLane="best" id="170">
			<route edges="road_0_1_0 road_1_1_3"/>
		</vehicle>
		<vehicle depart="210" departLane="best" id="171">
			<route edges="road_5_4_2 road_4_4_2 road_3_4_2 road_2_4_2 road_1_4_2"/>
		</vehicle>
		<vehicle depart="212" departLane="best" id="172">
			<route edges="road_0_4_0 road_1_4_3 road_1_3_3 road_1_2_3 road_1_1_3"/>
		</vehicle>
		<vehicle depart="216" departLane="best" id="173">
			<route edges="road_0_4_0 road_1_4_3 road_1_3_3 road_1_2_3 road_1_1_3"/>
		</vehicle>
		<vehicle depart="217" departLane="best" id="174">
			<route edges="road_5_4_2 road_4_4_2 road_3_4_2 road_2_4_2 road_1_4_2"/>
		</vehicle>
		<vehicle depart="220" departLane="best" id="175">
			<route edges="road_0_1_0 road_1_1_0 road_2_1_0 road_3_1_0 road_4_1_0"/>
		</vehicle>
		<vehicle depart="220" departLane="best" id="176">
			<route edges="road_0_4_0 road_1_4_0 road_2_4_3 road_2_3_0 road_3_3_0 road_4_3_1 road_4_4_1"/>
		</vehicle>
		<vehicle depart="221" departLane="best" id="177">
			<route edges="road_4_0_1 road_4_1_1 road_4_2_2 road_3_2_2 road_2_2_2 road_1_2_2"/>
		</vehicle>
		<vehicle depart="221" departLane="best" id="178">
			<route edges="road_5_3_2 road_4_3_1 road_4_4_2 road_3_4_1"/>
		</vehicle>
		<vehicle depart="222" departLane="best" id="179">
			<route edges="road_0_2_0 road_1_2_3 road_1_1_3"/>
		</vehicle>
		<vehicle depart="222" departLane="best" id="180">
			<route edges="road_5_2_2 road_4_2_2 road_3_2_1 road_3_3_0 road_4_3_3 road_4_2_3 road_4_1_2 road_3_1_1 road_3_2_0"/>
		</vehicle>
		<vehicle depart="224" departLane="best" id="181">
			<route edges="road_5_4_2 road_4_4_3 road_4_3_3 road_4_2_2 road_3_2_2 road_2_2_3 road_2_1_3"/>
		</vehicle>
		<vehicle depart="224" departLane="best" id="182">
			<route edges="road_0_4_0 road_1_4_0 road_2_4_3 road_2_3_2 road_1_3_2"/>
		</vehicle>
		<vehicle depart="228" departLane="best" id="183">
			<route edges="road_0_4_0 road_1_4_3 road_1_3_0 road_2_3_3 road_2_2_3 road_2_1_3"/>
		</vehicle>
		<vehicle depart="230" departLane="best" id="184">
			<route edges="road_0_1_0 road_1_1_0 road_2_1_0 road_3_1_0 road_4_1_0"/>
		</vehicle>
		<vehicle depart="230" departLane="best" id="185">
			<route edges="road_1_0_1 road_1_1_1 road_1_2_1 road_1_3_1 road_1_4_1"/>
		</vehicle>
		<vehicle depart="230" departLane="best" id="186">
			<route edges="road_1_5_3 road_1_4_0 road_2_4_0 road_3_4_3 road_3_3_2 road_2_3_2 road_1_3_2"/>
		</vehicle>
		<vehicle depart="231" departLane="best" id="187">
			<route edges="road_5_4_2 road_4_4_2 road_3_4_2 road_2_4_1"/>
		</vehicle>
		<vehicle depart="232" departLane="best" id="188">
			<route edges="road_0_4_0 road_1_4_0 road_2_4_0 road_3_4_0 road_4_4_1"/>
		</vehicle>
		<vehicle depart="234" departLane="best" id="189">
			<route edges="road_4_0_1 road_4_1_1 road_4_2_1 road_4_3_1 road_4_4_1"/>
		</vehicle>
		<vehicle depart="234" departLane="best" id="190">
			<route edges="road_5_3_2 road_4_3_1 road_4_4_2 road_3_4_1"/>
		</vehicle>
		<vehicle depart="236" departLane="best" id="191">
			<route edges="road_0_4_0 road_1_4_0 road_2_4_3 road_2_3_2 road_1_3_2"/>
		</vehicle>
		<vehicle depart="238" departLane="best" id="192">
			<route edges="road_5_4_2 road_4_4_1"/>
		</vehicle>
		<vehicle depart="240" departLane="best" id="193">
			<route edges="road_0_1_0 road_1_1_3"/>
		</vehicle>
		<vehicle depart="240" departLane="best" id="194">
			<route edges="road_0_4_0 road_1_4_0 road_2_4_0 road_3_4_0 road_4_4_0"/>
		</vehicle>
		<vehicle depart="244" departLane="best" id="195">
			<route edges="road_0_4_0 road_1_4_1"/>
		</vehicle>
		<vehicle depart="245" departLane="best" id="196">
			<route edges="road_5_4_2 road_4_4_1"/>
		</vehicle>
		<vehicle depart="247" departLane="best" id="197">
			<route edges="road_4_0_1 road_4_1_1 road_4_2_2 road_3_2_2 road_2_2_2 road_1_2_2"/>
		</vehicle>
		<vehicle depart="247" departLane="best" id="198">
			<route edges="road_5_3_2 road_4_3_2 road_3_3_2 road_2_3_2 road_1_3_1 road_1_4_1"/>
		</vehicle>
		<vehicle depart="248" departLane="best" id="199">
			<route edges="road_0_4_0 road_1_4_0 road_2_4_0 road_3_4_1"/>
		</vehicle>
		<vehicle depart="250" departLane="best" id="200">
			<route edges="road_0_1_0 road_1_1_0 road_2_1_0 road_3_1_0 road_4_1_0"/>
		</vehicle>
		<vehicle depart="252" departLane="best" id="201">
			<route edges="road_5_4_2 road_4_4_1"/>
		</vehicle>
		<vehicle depart="252" departLane="best" id="202">
			<route edges="road_0_4_0 road_1_4_0 road_2_4_0 road_3_4_0 road_4_4_0"/>
		</vehicle>
		<vehicle depart="253" departLane="best" id="203">
			<route edges="road_1_0_1 road_1_1_1 road_1_2_1 road_1_3_1 road_1_4_1"/>
		</vehicle>
		<vehicle depart="253" departLane="best" id="204">
			<route edges="road_1_5_3 road_1_4_3 road_1_3_2"/>
		</vehicle>
		<vehicle depart="256" departLane="best" id="205">
			<route edges="road_0_4_0 road_1_4_0 road_2_4_3 road_2_3_3 road_2_2_3 road_2_1_3"/>
		</vehicle>
		<vehicle depart="259" departLane="best" id="206">
			<route edges="road_5_4_2 road_4_4_2 road_3_4_2 road_2_4_3 road_2_3_2 road_1_3_2"/>
		</vehicle>
		<vehicle depart="259" departLane="best" id="207">
			<route edges="road_0_2_0 road_1_2_0 road_2_2_0 road_3_2_0 road_4_2_0"/>
		</vehicle>
		<vehicle depart="259" departLane="best" id="208">
			<route edges="road_5_2_2 road_4_2_1 road_4_3_1 road_4_4_1"/>
		</vehicle>
		<vehicle depart="260" departLane="best" id="209">
			<route edges="road_4_0_1 road_4_1_0"/>
		</vehicle>
		<vehicle depart="260" departLane="best" id="210">
			<route edges="road_0_1_0 road_1_1_0 road_2_1_0 road_3_1_0 road_4_1_3"/>
		</vehicle>
		<vehicle depart="260" departLane="best" id="211">
			<route edges="road_0_4_0 road_1_4_0 road_2_4_0 road_3_4_0 road_4_4_0"/>
		</vehicle>
		<vehicle depart="260" departLane="best" id="212">
			<route edges="road_5_3_2 road_4_3_2 road_3_3_1 road_3_4_1"/>
		</vehicle>
		<vehicle depart="264" departLane="best" id="213">
			<route edges="road_0_4_0 road_1_4_1"/>
		</vehicle>
		<vehicle depart="266" departLane="best" id="214">
			<route edges="road_5_4_2 road_4_4_1"/>
		</vehicle>
		<vehicle depart="268" departLane="best" id="215">
			<route edges="road_0_4_0 road_1_4_3 road_1_3_3 road_1_2_2"/>
		</vehicle>
		<vehicle depart="270" departLane="best" id="216">
			<route edges="road_0_1_0 road_1_1_0 road_2_1_3"/>
		</vehicle>
		<vehicle depart="272" departLane="best" id="217">