<?xml version="1.0" encoding="utf-8"?>
	<routes xmlns:xsi="http://www.w3.org/2001/XMLSchema-instance" xsi:noNamespaceSchemaLocation="http://sumo.dlr.de/xsd/routes_file.xsd">
		<vType accel="2.0" decel="4.5" id="pkw" length="5.0" maxSpeed="11.111" minGap="2.5" width="2.0"/>
		<vehicle depart="1" id="0">
			<route edges="road_0_1_0 road_1_1_0"/>
		</vehicle>
		<vehicle depart="2" id="1">
			<route edges="road_1_0_1 road_1_1_1"/>
		</vehicle>
		<vehicle depart="2" id="2">
			<route edges="road_1_0_1 road_1_1_2"/>
		</vehicle>
		<vehicle depart="3" id="3">
			<route edges="road_0_1_0 road_1_1_0"/>
		</vehicle>
		<vehicle depart="10" id="4">
			<route edges="road_1_0_1 road_1_1_1"/>
		</vehicle>
		<vehicle depart="10" id="5">
			<route edges="road_1_0_1 road_1_1_2"/>
		</vehicle>
		<vehicle depart="28" id="6">
			<route edges="road_1_0_1 road_1_1_1"/>
		</vehicle>
		<vehicle depart="29" id="7">
			<route edges="road_0_1_0 road_1_1_0"/>
		</vehicle>
		<vehicle depart="47" id="8">
			<route edges="road_2_1_2 road_1_1_2"/>
		</vehicle>
		<vehicle depart="55" id="9">
			<route edges="road_0_1_0 road_1_1_0"/>
		</vehicle>
		<vehicle depart="60" id="10">
			<route edges="road_0_1_0 road_1_1_0"/>
		</vehicle>
		<vehicle depart="60" id="11">
			<route edges="road_0_1_0 road_1_1_1"/>
		</vehicle>
		<vehicle depart="60" id="12">
			<route edges="road_0_1_0 road_1_1_0"/>
		</vehicle>
		<vehicle depart="62" id="13">
			<route edges="road_2_1_2 road_1_1_2"/>
		</vehicle>
		<vehicle depart="62" id="14">
			<route edges="road_0_1_0 road_1_1_0"/>
		</vehicle>
		<vehicle depart="63" id="15">
			<route edges="road_0_1_0 road_1_1_0"/>
		</vehicle>
		<vehicle depart="64" id="16">
			<route edges="road_2_1_2 road_1_1_2"/>
		</vehicle>
		<vehicle depart="65" id="17">
			<route edges="road_0_1_0 road_1_1_0"/>
		</vehicle>
		<vehicle depart="66" id="18">
			<route edges="road_2_1_2 road_1_1_2"/>
		</vehicle>
		<vehicle depart="66" id="19">
			<route edges="road_2_1_2 road_1_1_3"/>
		</vehicle>
		<vehicle depart="66" id="20">
			<route edges="road_2_1_2 road_1_1_2"/>
		</vehicle>
		<vehicle depart="66" id="21">
			<route edges="road_2_1_2 road_1_1_2"/>
		</vehicle>
		<vehicle depart="67" id="22">
			<route edges="road_0_1_0 road_1_1_0"/>
		</vehicle>
		<vehicle depart="70" id="23">
			<route edges="road_2_1_2 road_1_1_2"/>
		</vehicle>
		<vehicle depart="72" id="24">
			<route edges="road_0_1_0 road_1_1_0"/>
		</vehicle>
		<vehicle depart="73" id="25">
			<route edges="road_2_1_2 road_1_1_2"/>
		</vehicle>
		<vehicle depart="73" id="26">
			<route edges="road_2_1_2 road_1_1_3"/>
		</vehicle>
		<vehicle depart="73" id="27">
			<route edges="road_2_1_2 road_1_1_2"/>
		</vehicle>
		<vehicle depart="73" id="28">
			<route edges="road_2_1_2 road_1_1_3"/>
		</vehicle>
		<vehicle depart="74" id="29">
			<route edges="road_0_1_0 road_1_1_0"/>
		</vehicle>
		<vehicle depart="76" id="30">
			<route edges="road_2_1_2 road_1_1_2"/>
		</vehicle>
		<vehicle depart="76" id="31">
			<route edges="road_2_1_2 road_1_1_2"/>
		</vehicle>
		<vehicle depart="76" id="32">
			<route edges="road_2_1_2 road_1_1_3"/>
		</vehicle>
		<vehicle depart="78" id="33">
			<route edges="road_0_1_0 road_1_1_0"/>
		</vehicle>
		<vehicle depart="81" id="34">
			<route edges="road_2_1_2 road_1_1_2"/>
		</vehicle>
		<vehicle depart="83" id="35">
			<route edges="road_2_1_2 road_1_1_2"/>
		</vehicle>
		<vehicle depart="84" id="36">
			<route edges="road_0_1_0 road_1_1_0"/>
		</vehicle>
		<vehicle depart="84" id="37">
			<route edges="road_0_1_0 road_1_1_0"/>
		</vehicle>
		<vehicle depart="84" id="38">
			<route edges="road_0_1_0 road_1_1_1"/>
		</vehicle>
		<vehicle depart="85" id="39">
			<route edges="road_0_1_0 road_1_1_0"/>
		</vehicle>
		<vehicle depart="86" id="40">
			<route edges="road_0_1_0 road_1_1_0"/>
		</vehicle>
		<vehicle depart="96" id="41">
			<route edges="road_2_1_2 road_1_1_2"/>
		</vehicle>
		<vehicle depart="108" id="42">
			<route edges="road_0_1_0 road_1_1_0"/>
		</vehicle>
		<vehicle depart="113" id="43">
			<route edges="road_2_1_2 road_1_1_2"/>
		</vehicle>
		<vehicle depart="116" id="44">
			<route edges="road_0_1_0 road_1_1_0"/>
		</vehicle>
		<vehicle depart="119" id="45">
			<route edges="road_0_1_0 road_1_1_0"/>
		</vehicle>
		<vehicle depart="119" id="46">
			<route edges="road_0_1_0 road_1_1_1"/>
		</vehicle>
		<vehicle depart="127" id="47">
			<route edges="road_1_0_1 road_1_1_1"/>
		</vehicle>
		<vehicle depart="127" id="48">
			<route edges="road_1_0_1 road_1_1_2"/>
		</vehicle>
		<vehicle depart="131" id="49">
			<route edges="road_1_0_1 road_1_1_1"/>
		</vehicle>
		<vehicle depart="133" id="50">
			<route edges="road_1_0_1 road_1_1_1"/>
		</vehicle>
		<vehicle depart="133" id="51">
			<route edges="road_1_2_3 road_1_1_3"/>
		</vehicle>
		<vehicle depart="136" id="52">
			<route edges="road_1_0_1 road_1_1_1"/>
		</vehicle>
		<vehicle depart="143" id="53">
			<route edges="road_1_0_1 road_1_1_1"/>
		</vehicle>
		<vehicle depart="148" id="54">
			<route edges="road_1_0_1 road_1_1_1"/>
		</vehicle>
		<vehicle depart="154" id="55">
			<route edges="road_1_0_1 road_1_1_1"/>
		</vehicle>
		<vehicle depart="154" id="56">
			<route edges="road_1_0_1 road_1_1_2"/>
		</vehicle>
		<vehicle depart="162" id="57">
			<route edges="road_0_1_0 road_1_1_0"/>
		</vehicle>
		<vehicle depart="175" id="58">
			<route edges="road_1_0_1 road_1_1_1"/>
		</vehicle>
		<vehicle depart="178" id="59">
			<route edges="road_1_0_1 road_1_1_1"/>
		</vehicle>
		<vehicle depart="178" id="60">
			<route edges="road_1_0_1 road_1_1_2"/>
		</vehicle>
		<vehicle depart="183" id="61">
			<route edges="road_1_2_3 road_1_1_3"/>
		</vehicle>
		<vehicle depart="183" id="62">
			<route edges="road_1_0_1 road_1_1_1"/>
		</vehicle>
		<vehicle depart="183" id="63">
			<route edges="road_1_0_1 road_1_1_2"/>
		</vehicle>
		<vehicle depart="185" id="64">
			<route edges="road_1_2_3 road_1_1_3"/>
		</vehicle>
		<vehicle depart="186" id="65">
			<route edges="road_1_0_1 road_1_1_1"/>
		</vehicle>
		<vehicle depart="186" id="66">
			<route edges="road_1_2_3 road_1_1_3"/>
		</vehicle>
		<vehicle depart="188" id="67">
			<route edges="road_1_0_1 road_1_1_1"/>
		</vehicle>
		<vehicle depart="191" id="68">
			<route edges="road_1_0_1 road_1_1_1"/>
		</vehicle>
		<vehicle depart="209" id="69">
			<route edges="road_0_1_0 road_1_1_0"/>
		</vehicle>
		<vehicle depart="215" id="70">
			<route edges="road_0_1_0 road_1_1_0"/>
		</vehicle>
		<vehicle depart="216" id="71">
			<route edges="road_1_2_3 road_1_1_3"/>
		</vehicle>
		<vehicle depart="217" id="72">
			<route edges="road_1_0_1 road_1_1_1"/>
		</vehicle>
		<vehicle depart="219" id="73">
			<route edges="road_0_1_0 road_1_1_0"/>
		</vehicle>
		<vehicle depart="242" id="74">
			<route edges="road_0_1_0 road_1_1_0"/>
		</vehicle>
		<vehicle depart="242" id="75">
			<route edges="road_0_1_0 road_1_1_0"/>
		</vehicle>
		<vehicle depart="242" id="76">
			<route edges="road_0_1_0 road_1_1_1"/>
		</vehicle>
		<vehicle depart="246" id="77">
			<route edges="road_2_1_2 road_1_1_2"/>
		</vehicle>
		<vehicle depart="246" id="78">
			<route edges="road_2_1_2 road_1_1_3"/>
		</vehicle>
		<vehicle depart="251" id="79">
			<route edges="road_1_0_1 road_1_1_1"/>
		</vehicle>
		<vehicle depart="252" id="80">
			<route edges="road_2_1_2 road_1_1_2"/>
		</vehicle>
		<vehicle depart="254" id="81">
			<route edges="road_0_1_0 road_1_1_0"/>
		</vehicle>
		<vehicle depart="257" id="82">
			<route edges="road_0_1_0 road_1_1_0"/>
		</vehicle>
		<vehicle depart="257" id="83">
			<route edges="road_0_1_0 road_1_1_0"/>
		</vehicle>
		<vehicle depart="259" id="84">
			<route edges="road_2_1_2 road_1_1_2"/>
		</vehicle>
		<vehicle depart="259" id="85">
			<route edges="road_0_1_0 road_1_1_0"/>
		</vehicle>
		<vehicle depart="259" id="86">
			<route edges="road_0_1_0 road_1_1_1"/>
		</vehicle>
		<vehicle depart="260" id="87">
			<route edges="road_0_1_0 road_1_1_0"/>
		</vehicle>
		<vehicle depart="262" id="88">
			<route edges="road_0_1_0 road_1_1_0"/>
		</vehicle>
		<vehicle depart="263" id="89">
			<route edges="road_0_1_0 road_1_1_0"/>
		</vehicle>
		<vehicle depart="264" id="90">
			<route edges="road_0_1_0 road_1_1_0"/>
		</vehicle>
		<vehicle depart="266" id="91">
			<route edges="road_0_1_0 road_1_1_0"/>
		</vehicle>
		<vehicle depart="269" id="92">
			<route edges="road_0_1_0 road_1_1_0"/>
		</vehicle>
		<vehicle depart="272" id="93">
			<route edges="road_2_1_2 road_1_1_2"/>
		</vehicle>
		<vehicle depart="273" id="94">
			<route edges="road_0_1_0 road_1_1_0"/>
		</vehicle>
		<vehicle depart="275" id="95">
			<route edges="road_2_1_2 road_1_1_2"/>
		</vehicle>
		<vehicle depart="278" id="96">
			<route edges="road_0_1_0 road_1_1_0"/>
		</vehicle>
		<vehicle depart="282" id="97">
			<route edges="road_0_1_0 road_1_1_0"/>
		</vehicle>
		<vehicle depart="295" id="98">
			<route edges="road_0_1_0 road_1_1_0"/>
		</vehicle>
		<vehicle depart="309" id="99">
			<route edges="road_1_2_3 road_1_1_3"/>
		</vehicle>
		<vehicle depart="309" id="100">
			<route edges="road_0_1_0 road_1_1_0"/>
		</vehicle>
		<vehicle depart="309" id="101">
			<route edges="road_0_1_0 road_1_1_1"/>
		</vehicle>
		<vehicle depart="312" id="102">
			<route edges="road_1_2_3 road_1_1_3"/>
		</vehicle>
		<vehicle depart="312" id="103">
			<route edges="road_1_2_3 road_1_1_0"/>
		</vehicle>
		<vehicle depart="316" id="104">
			<route edges="road_1_0_1 road_1_1_1"/>
		</vehicle>
		<vehicle depart="316" id="105">
			<route edges="road_1_2_3 road_1_1_3"/>
		</vehicle>
		<vehicle depart="316" id="106">
			<route edges="road_1_2_3 road_1_1_0"/>
		</vehicle>
		<vehicle depart="316" id="107">
			<route edges="road_2_1_2 road_1_1_2"/>
		</vehicle>
		<vehicle depart="322" id="108">
			<route edges="road_1_0_1 road_1_1_1"/>
		</vehicle>
		<vehicle depart="325" id="109">
			<route edges="road_0_1_0 road_1_1_0"/>
		</vehicle>
		<vehicle depart="327" id="110">
			<route edges="road_0_1_0 road_1_1_0"/>
		</vehicle>
		<vehicle depart="330" id="111">
			<route edges="road_0_1_0 road_1_1_0"/>
		</vehicle>
		<vehicle depart="332" id="112">
			<route edges="road_1_0_1 road_1_1_1"/>
		</vehicle>
		<vehicle depart="335" id="113">
			<route edges="road_0_1_0 road_1_1_0"/>
		</vehicle>
		<vehicle depart="336" id="114">
			<route edges="road_1_2_3 road_1_1_3"/>
		</vehicle>
		<vehicle depart="343" id="115">
			<route edges="road_1_2_3 road_1_1_3"/>
		</vehicle>
		<vehicle depart="350" id="116">
			<route edges="road_1_2_3 road_1_1_3"/>
		</vehicle>
		<vehicle depart="350" id="117">
			<route edges="road_1_2_3 road_1_1_0"/>
		</vehicle>
		<vehicle depart="353" id="118">
			<route edges="road_1_0_1 road_1_1_1"/>
		</vehicle>
		<vehicle depart="354" id="119">
			<route edges="road_1_0_1 road_1_1_1"/>
		</vehicle>
		<vehicle depart="354" id="120">
			<route edges="road_1_2_3 road_1_1_3"/>
		</vehicle>
		<vehicle depart="354" id="121">
			<route edges="road_1_0_1 road_1_1_1"/>
		</vehicle>
		<vehicle depart="354" id="122">
			<route edges="road_1_0_1 road_1_1_2"/>
		</vehicle>
		<vehicle depart="355" id="123">
			<route edges="road_1_2_3 road_1_1_3"/>
		</vehicle>
		<vehicle depart="357" id="124">
			<route edges="road_1_0_1 road_1_1_1"/>
		</vehicle>
		<vehicle depart="362" id="125">
			<route edges="road_1_0_1 road_1_1_1"/>
		</vehicle>
		<vehicle depart="362" id="126">
			<route edges="road_1_2_3 road_1_1_3"/>
		</vehicle>
		<vehicle depart="363" id="127">
			<route edges="road_1_0_1 road_1_1_1"/>
		</vehicle>
		<vehicle depart="389" id="128">
			<route edges="road_2_1_2 road_1_1_2"/>
		</vehicle>
		<vehicle depart="389" id="129">
			<route edges="road_2_1_2 road_1_1_2"/>
		</vehicle>
		<vehicle depart="390" id="130">
			<route edges="road_2_1_2 road_1_1_2"/>
		</vehicle>
		<vehicle depart="391" id="131">
			<route edges="road_1_2_3 road_1_1_3"/>
		</vehicle>
		<vehicle depart="391" id="132">
			<route edges="road_1_2_3 road_1_1_0"/>
		</vehicle>
		<vehicle depart="411" id="133">
			<route edges="road_1_0_1 road_1_1_1"/>
		</vehicle>
		<vehicle depart="420" id="134">
			<route edges="road_2_1_2 road_1_1_2"/>
		</vehicle>
		<vehicle depart="425" id="135">
			<route edges="road_0_1_0 road_1_1_0"/>
		</vehicle>
		<vehicle depart="425" id="136">
			<route edges="road_0_1_0 road_1_1_0"/>
		</vehicle>
		<vehicle depart="426" id="137">
			<route edges="road_0_1_0 road_1_1_0"/>
		</vehicle>
		<vehicle depart="428" id="138">
			<route edges="road_2_1_2 road_1_1_2"/>
		</vehicle>
		<vehicle depart="431" id="139">
			<route edges="road_0_1_0 road_1_1_0"/>
		</vehicle>
		<vehicle depart="432" id="140">
			<route edges="road_2_1_2 road_1_1_2"/>
		</vehicle>
		<vehicle depart="434" id="141">
			<route edges="road_0_1_0 road_1_1_0"/>
		</vehicle>
		<vehicle depart="435" id="142">
			<route edges="road_0_1_0 road_1_1_0"/>
		</vehicle>
		<vehicle depart="438" id="143">
			<route edges="road_2_1_2 road_1_1_2"/>
		</vehicle>
		<vehicle depart="444" id="144">
			<route edges="road_1_0_1 road_1_1_1"/>
		</vehicle>
		<vehicle depart="445" id="145">
			<route edges="road_1_0_1 road_1_1_1"/>
		</vehicle>
		<vehicle depart="446" id="146">
			<route edges="road_2_1_2 road_1_1_2"/>
		</vehicle>
		<vehicle depart="446" id="147">
			<route edges="road_2_1_2 road_1_1_3"/>
		</vehicle>
		<vehicle depart="447" id="148">
			<route edges="road_0_1_0 road_1_1_0"/>
		</vehicle>
		<vehicle depart="450" id="149">
			<route edges="road_1_0_1 road_1_1_1"/>
		</vehicle>
		<vehicle depart="450" id="150">
			<route edges="road_2_1_2 road_1_1_2"/>
		</vehicle>
		<vehicle depart="452" id="151">
			<route edges="road_1_0_1 road_1_1_1"/>
		</vehicle>
		<vehicle depart="452" id="152">
			<route edges="road_0_1_0 road_1_1_0"/>
		</vehicle>
		<vehicle depart="453" id="153">
			<route edges="road_0_1_0 road_1_1_0"/>
		</vehicle>
		<vehicle depart="453" id="154">
			<route edges="road_0_1_0 road_1_1_0"/>
		</vehicle>
		<vehicle depart="454" id="155">
			<route edges="road_2_1_2 road_1_1_2"/>
		</vehicle>
		<vehicle depart="459" id="156">
			<route edges="road_1_0_1 road_1_1_1"/>
		</vehicle>
		<vehicle depart="461" id="157">
			<route edges="road_2_1_2 road_1_1_2"/>
		</vehicle>
		<vehicle depart="463" id="158">
			<route edges="road_2_1_2 road_1_1_2"/>
		</vehicle>
		<vehicle depart="468" id="159">
			<route edges="road_2_1_2 road_1_1_2"/>
		</vehicle>
		<vehicle depart="470" id="160">
			<route edges="road_0_1_0 road_1_1_0"/>
		</vehicle>
		<vehicle depart="471" id="161">
			<route edges="road_2_1_2 road_1_1_2"/>
		</vehicle>
		<vehicle depart="471" id="162">
			<route edges="road_2_1_2 road_1_1_3"/>
		</vehicle>
		<vehicle depart="473" id="163">
			<route edges="road_2_1_2 road_1_1_2"/>
		</vehicle>
		<vehicle depart="475" id="164">
			<route edges="road_0_1_0 road_1_1_0"/>
		</vehicle>
		<vehicle depart="479" id="165">
			<route edges="road_2_1_2 road_1_1_2"/>
		</vehicle>
		<vehicle depart="489" id="166">
			<route edges="road_1_0_1 road_1_1_1"/>
		</vehicle>
		<vehicle depart="491" id="167">
			<route edges="road_1_2_3 road_1_1_3"/>
		</vehicle>
		<vehicle depart="494" id="168">
			<route edges="road_1_0_1 road_1_1_1"/>
		</vehicle>
		<vehicle depart="494" id="169">
			<route edges="road_1_0_1 road_1_1_2"/>
		</vehicle>
		<vehicle depart="500" id="170">
			<route edges="road_0_1_0 road_1_1_0"/>
		</vehicle>
		<vehicle depart="501" id="171">
			<route edges="road_1_2_3 road_1_1_3"/>
		</vehicle>
		<vehicle depart="501" id="172">
			<route edges="road_0_1_0 road_1_1_0"/>
		</vehicle>
		<vehicle depart="501" id="173">
			<route edges="road_0_1_0 road_1_1_1"/>
		</vehicle>
		<vehicle depart="503" id="174">
			<route edges="road_0_1_0 road_1_1_0"/>
		</vehicle>
		<vehicle depart="510" id="175">
			<route edges="road_1_0_1 road_1_1_1"/>
		</vehicle>
		<vehicle depart="516" id="176">
			<route edges="road_0_1_0 road_1_1_0"/>
		</vehicle>
		<vehicle depart="516" id="177">
			<route edges="road_0_1_0 road_1_1_0"/>
		</vehicle>
		<vehicle depart="518" id="178">
			<route edges="road_2_1_2 road_1_1_2"/>
		</vehicle>
		<vehicle depart="521" id="179">
			<route edges="road_1_0_1 road_1_1_1"/>
		</vehicle>
		<vehicle depart="521" id="180">
			<route edges="road_1_0_1 road_1_1_2"/>
		</vehicle>
		<vehicle depart="522" id="181">
			<route edges="road_2_1_2 road_1_1_2"/>
		</vehicle>
		<vehicle depart="522" id="182">
			<route edges="road_1_0_1 road_1_1_1"/>
		</vehicle>
		<vehicle depart="523" id="183">
			<route edges="road_1_0_1 road_1_1_1"/>
		</vehicle>
		<vehicle depart="525" id="184">
			<route edges="road_1_2_3 road_1_1_3"/>
		</vehicle>
		<vehicle depart="530" id="185">
			<route edges="road_1_0_1 road_1_1_1"/>
		</vehicle>
		<vehicle depart="534" id="186">
			<route edges="road_1_0_1 road_1_1_1"/>
		</vehicle>
		<vehicle depart="537" id="187">
			<route edges="road_1_0_1 road_1_1_1"/>
		</vehicle>
		<vehicle depart="537" id="188">
			<route edges="road_1_0_1 road_1_1_2"/>
		</vehicle>
		<vehicle depart="539" id="189">
			<route edges="road_1_0_1 road_1_1_1"/>
		</vehicle>
		<vehicle depart="539" id="190">
			<route edges="road_1_0_1 road_1_1_2"/>
		</vehicle>
		<vehicle depart="541" id="191">
			<route edges="road_1_2_3 road_1_1_3"/>
		</vehicle>
		<vehicle depart="544" id="192">
			<route edges="road_1_2_3 road_1_1_3"/>
		</vehicle>
		<vehicle depart="570" id="193">
			<route edges="road_1_0_1 road_1_1_1"/>
		</vehicle>
		<vehicle depart="576" id="194">
			<route edges="road_2_1_2 road_1_1_2"/>
		</vehicle>
		<vehicle depart="577" id="195">
			<route edges="road_1_2_3 road_1_1_3"/>
		</vehicle>
		<vehicle depart="581" id="196">
			<route edges="road_2_1_2 road_1_1_2"/>
		</vehicle>
		<vehicle depart="582" id="197">
			<route edges="road_2_1_2 road_1_1_2"/>
		</vehicle>
		<vehicle depart="582" id="198">
			<route edges="road_1_2_3 road_1_1_3"/>
		</vehicle>
		<vehicle depart="610" id="199">
			<route edges="road_0_1_0 road_1_1_0"/>
		</vehicle>
		<vehicle depart="614" id="200">
			<route edges="road_0_1_0 road_1_1_0"/>
		</vehicle>
		<vehicle depart="617" id="201">
			<route edges="road_0_1_0 road_1_1_0"/>
		</vehicle>
		<vehicle depart="617" id="202">
			<route edges="road_2_1_2 road_1_1_2"/>
		</vehicle>
		<vehicle depart="618" id="203">
			<route edges="road_2_1_2 road_1_1_2"/>
		</vehicle>
		<vehicle depart="620" id="204">
			<route edges="road_0_1_0 road_1_1_0"/>
		</vehicle>
		<vehicle depart="623" id="205">
			<route edges="road_2_1_2 road_1_1_2"/>
		</vehicle>
		<vehicle depart="623" id="206">
			<route edges="road_0_1_0 road_1_1_0"/>
		</vehicle>
		<vehicle depart="626" id="207">
			<route edges="road_0_1_0 road_1_1_0"/>
		</vehicle>
		<vehicle depart="628" id="208">
			<route edges="road_0_1_0 road_1_1_0"/>
		</vehicle>
		<vehicle depart="632" id="209">
			<route edges="road_2_1_2 road_1_1_2"/>
		</vehicle>
		<vehicle depart="634" id="210">
			<route edges="road_2_1_2 road_1_1_2"/>
		</vehicle>
		<vehicle depart="634" id="211">
			<route edges="road_2_1_2 road_1_1_3"/>
		</vehicle>
		<vehicle depart="635" id="212">
			<route edges="road_2_1_2 road_1_1_2"/>
		</vehicle>
		<vehicle depart="638" id="213">
			<route edges="road_2_1_2 road_1_1_2"/>
		</vehicle>
		<vehicle depart="642" id="214">
			<route edges="road_0_1_0 road_1_1_0"/>
		</vehicle>
		<vehicle depart="644" id="215">
			<route edges="road_2_1_2 road_1_1_2"/>
		</vehicle>
		<vehicle depart="644" id="216">
			<route edges="road_2_1_2 road_1_1_3"/>
		</vehicle>
		<vehicle depart="646" id="217">
			<route edges="road_0_1_0 road_1_1_0"/>
		</vehicle>
		<vehicle depart="646" id="218">
			<route edges="road_0_1_0 road_1_1_1"/>
		</vehicle>
		<vehicle depart="647" id="219">
			<route edges="road_0_1_0 road_1_1_0"/>
		</vehicle>
		<vehicle depart="649" id="220">
			<route edges="road_2_1_2 road_1_1_2"/>
		</vehicle>
		<vehicle depart="649" id="221">
			<route edges="road_0_1_0 road_1_1_0"/>
		</vehicle>
		<vehicle depart="649" id="222">
			<route edges="road_0_1_0 road_1_1_1"/>
		</vehicle>
		<vehicle depart="649" id="223">
			<route edges="road_2_1_2 road_1_1_2"/>
		</vehicle>
		<vehicle depart="651" id="224">
			<route edges="road_0_1_0 road_1_1_0"/>
		</vehicle>
		<vehicle depart="656" id="225">
			<route edges="road_0_1_0 road_1_1_0"/>
		</vehicle>
		<vehicle depart="672" id="226">
			<route edges="road_1_2_3 road_1_1_3"/>
		</vehicle>
		<vehicle depart="674" id="227">
			<route edges="road_1_2_3 road_1_1_3"/>
		</vehicle>
		<vehicle depart="674" id="228">
			<route edges="road_2_1_2 road_1_1_2"/>
		</vehicle>
		<vehicle depart="679" id="229">
			<route edges="road_2_1_2 road_1_1_2"/>
		</vehicle>
		<vehicle depart="680" id="230">
			<route edges="road_1_0_1 road_1_1_1"/>
		</vehicle>
		<vehicle depart="681" id="231">
			<route edges="road_1_2_3 road_1_1_3"/>
		</vehicle>
		<vehicle depart="681" id="232">
			<route edges="road_1_2_3 road_1_1_3"/>
		</vehicle>
		<vehicle depart="682" id="233">
			<route edges="road_1_2_3 road_1_1_3"/>
		</vehicle>
		<vehicle depart="683" id="234">
			<route edges="road_0_1_0 road_1_1_0"/>
		</vehicle>
		<vehicle depart="686" id="235">
			<route edges="road_0_1_0 road_1_1_0"/>
		</vehicle>
		<vehicle depart="689" id="236">
			<route edges="road_1_0_1 road_1_1_1"/>
		</vehicle>
		<vehicle depart="689" id="237">
			<route edges="road_1_0_1 road_1_1_2"/>
		</vehicle>
		<vehicle depart="690" id="238">
			<route edges="road_1_2_3 road_1_1_3"/>
		</vehicle>
		<vehicle depart="690" id="239">
			<route edges="road_0_1_0 road_1_1_0"/>
		</vehicle>
		<vehicle depart="720" id="240">
			<route edges="road_1_0_1 road_1_1_1"/>
		</vehicle>
		<vehicle depart="724" id="241">
			<route edges="road_1_0_1 road_1_1_1"/>
		</vehicle>
		<vehicle depart="728" id="242">
			<route edges="road_1_2_3 road_1_1_3"/>
		</vehicle>
		<vehicle depart="731" id="243">
			<route edges="road_1_2_3 road_1_1_3"/>
		</vehicle>
		<vehicle depart="753" id="244">
			<route edges="road_1_0_1 road_1_1_1"/>
		</vehicle>
		<vehicle depart="757" id="245">
			<route edges="road_1_0_1 road_1_1_1"/>
		</vehicle>
		<vehicle depart="760" id="246">
			<route edges="road_0_1_0 road_1_1_0"/>
		</vehicle>
		<vehicle depart="780" id="247">
			<route edges="road_1_0_1 road_1_1_1"/>
		</vehicle>
		<vehicle depart="782" id="248">
			<route edges="road_2_1_2 road_1_1_2"/>
		</vehicle>
		<vehicle depart="786" id="249">
			<route edges="road_2_1_2 road_1_1_2"/>
		</vehicle>
		<vehicle depart="786" id="250">
			<route edges="road_0_1_0 road_1_1_0"/>
		</vehicle>
		<vehicle depart="786" id="251">
			<route edges="road_0_1_0 road_1_1_1"/>
		</vehicle>
		<vehicle depart="787" id="252">
			<route edges="road_2_1_2 road_1_1_2"/>
		</vehicle>
		<vehicle depart="787" id="253">
			<route edges="road_0_1_0 road_1_1_0"/>
		</vehicle>
		<vehicle depart="789" id="254">
			<route edges="road_2_1_2 road_1_1_2"/>
		</vehicle>
		<vehicle depart="789" id="255">
			<route edges="road_2_1_2 road_1_1_3"/>
		</vehicle>
		<vehicle depart="790" id="256">
			<route edges="road_2_1_2 road_1_1_2"/>
		</vehicle>
		<vehicle depart="793" id="257">
			<route edges="road_0_1_0 road_1_1_0"/>
		</vehicle>
		<vehicle depart="794" id="258">
			<route edges="road_2_1_2 road_1_1_2"/>
		</vehicle>
		<vehicle depart="796" id="259">
			<route edges="road_0_1_0 road_1_1_0"/>
		</vehicle>
		<vehicle depart="797" id="260">
			<route edges="road_2_1_2 road_1_1_2"/>
		</vehicle>
		<vehicle depart="798" id="261">
			<route edges="road_0_1_0 road_1_1_0"/>
		</vehicle>
		<vehicle depart="800" id="262">
			<route edges="road_0_1_0 road_1_1_0"/>
		</vehicle>
		<vehicle depart="802" id="263">
			<route edges="road_2_1_2 road_1_1_2"/>
		</vehicle>
		<vehicle depart="804" id="264">
			<route edges="road_2_1_2 road_1_1_2"/>
		</vehicle>
		<vehicle depart="805" id="265">
			<route edges="road_2_1_2 road_1_1_2"/>
		</vehicle>
		<vehicle depart="809" id="266">
			<route edges="road_0_1_0 road_1_1_0"/>
		</vehicle>
		<vehicle depart="810" id="267">
			<route edges="road_0_1_0 road_1_1_0"/>
		</vehicle>
		<vehicle depart="810" id="268">
			<route edges="road_1_2_3 road_1_1_3"/>
		</vehicle>
		<vehicle depart="810" id="269">
			<route edges="road_2_1_2 road_1_1_2"/>
		</vehicle>
		<vehicle depart="812" id="270">
			<route edges="road_2_1_2 road_1_1_2"/>
		</vehicle>
		<vehicle depart="820" id="271">
			<route edges="road_0_1_0 road_1_1_0"/>
		</vehicle>
		<vehicle depart="821" id="272">
			<route edges="road_0_1_0 road_1_1_0"/>
		</vehicle>
		<vehicle depart="822" id="273">
			<route edges="road_0_1_0 road_1_1_0"/>
		</vehicle>
		<vehicle depart="823" id="274">
			<route edges="road_0_1_0 road_1_1_0"/>
		</vehicle>
		<vehicle depart="823" id="275">
			<route edges="road_0_1_0 road_1_1_0"/>
		</vehicle>
		<vehicle depart="824" id="276">
			<route edges="road_1_0_1 road_1_1_1"/>
		</vehicle>
		<vehicle depart="826" id="277">
			<route edges="road_0_1_0 road_1_1_0"/>
		</vehicle>
		<vehicle depart="828" id="278">
			<route edges="road_2_1_2 road_1_1_2"/>
		</vehicle>
		<vehicle depart="831" id="279">
			<route edges="road_2_1_2 road_1_1_2"/>
		</vehicle>
		<vehicle depart="847" id="280">
			<route edges="road_1_0_1 road_1_1_1"/>
		</vehicle>
		<vehicle depart="849" id="281">
			<route edges="road_1_0_1 road_1_1_1"/>
		</vehicle>
		<vehicle depart="852" id="282">
			<route edges="road_1_0_1 road_1_1_1"/>
		</vehicle>
		<vehicle depart="852" id="283">
			<route edges="road_1_0_1 road_1_1_2"/>
		</vehicle>
		<vehicle depart="852" id="284">
			<route edges="road_1_2_3 road_1_1_3"/>
		</vehicle>
		<vehicle depart="853" id="285">
			<route edges="road_1_0_1 road_1_1_1"/>
		</vehicle>
		<vehicle depart="861" id="286">
			<route edges="road_1_2_3 road_1_1_3"/>
		</vehicle>
		<vehicle depart="865" id="287">
			<route edges="road_1_2_3 road_1_1_3"/>
		</vehicle>
		<vehicle depart="865" id="288">
			<route edges="road_1_2_3 road_1_1_3"/>
		</vehicle>
		<vehicle depart="869" id="289">
			<route edges="road_1_0_1 road_1_1_1"/>
		</vehicle>
		<vehicle depart="870" id="290">
			<route edges="road_1_2_3 road_1_1_3"/>
		</vehicle>
		<vehicle depart="873" id="291">
			<route edges="road_1_2_3 road_1_1_3"/>
		</vehicle>
		<vehicle depart="874" id="292">
			<route edges="road_1_2_3 road_1_1_3"/>
		</vehicle>
		<vehicle depart="879" id="293">
			<route edges="road_1_2_3 road_1_1_3"/>
		</vehicle>
		<vehicle depart="880" id="294">
			<route edges="road_1_0_1 road_1_1_1"/>
		</vehicle>
		<vehicle depart="882" id="295">
			<route edges="road_1_2_3 road_1_1_3"/>
		</vehicle>
		<vehicle depart="892" id="296">
			<route edges="road_1_0_1 road_1_1_1"/>
		</vehicle>
		<vehicle depart="893" id="297">
			<route edges="road_1_0_1 road_1_1_1"/>
		</vehicle>
		<vehicle depart="896" id="298">
			<route edges="road_1_2_3 road_1_1_3"/>
		</vehicle>
		<vehicle depart="897" id="299">
			<route edges="road_1_0_1 road_1_1_1"/>
		</vehicle>
		<vehicle depart="900" id="300">
			<route edges="road_1_0_1 road_1_1_1"/>
		</vehicle>
		<vehicle depart="902" id="301">
			<route edges="road_1_2_3 road_1_1_3"/>
		</vehicle>
		<vehicle depart="903" id="302">
			<route edges="road_2_1_2 road_1_1_2"/>
		</vehicle>
		<vehicle depart="906" id="303">
			<route edges="road_1_2_3 road_1_1_3"/>
		</vehicle>
		<vehicle depart="907" id="304">
			<route edges="road_1_0_1 road_1_1_1"/>
		</vehicle>
		<vehicle depart="907" id="305">
			<route edges="road_2_1_2 road_1_1_2"/>
		</vehicle>
		<vehicle depart="909" id="306">
			<route edges="road_1_0_1 road_1_1_1"/>
		</vehicle>
		<vehicle depart="909" id="307">
			<route edges="road_1_2_3 road_1_1_3"/>
		</vehicle>
		<vehicle depart="916" id="308">
			<route edges="road_1_0_1 road_1_1_1"/>
		</vehicle>
		<vehicle depart="923" id="309">
			<route edges="road_2_1_2 road_1_1_2"/>
		</vehicle>
		<vehicle depart="927" id="310">
			<route edges="road_1_2_3 road_1_1_3"/>
		</vehicle>
		<vehicle depart="928" id="311">
			<route edges="road_2_1_2 road_1_1_2"/>
		</vehicle>
		<vehicle depart="928" id="312">
			<route edges="road_2_1_2 road_1_1_3"/>
		</vehicle>
		<vehicle depart="928" id="313">
			<route edges="road_1_0_1 road_1_1_1"/>
		</vehicle>
		<vehicle depart="930" id="314">
			<route edges="road_0_1_0 road_1_1_0"/>
		</vehicle>
		<vehicle depart="934" id="315">
			<route edges="road_2_1_2 road_1_1_2"/>
		</vehicle>
		<vehicle depart="943" id="316">
			<route edges="road_0_1_0 road_1_1_0"/>
		</vehicle>
		<vehicle depart="947" id="317">
			<route edges="road_0_1_0 road_1_1_0"/>
		</vehicle>
		<vehicle depart="947" id="318">
			<route edges="road_0_1_0 road_1_1_1"/>
		</vehicle>
		<vehicle depart="955" id="319">
			<route edges="road_1_2_3 road_1_1_3"/>
		</vehicle>
		<vehicle depart="955" id="320">
			<route edges="road_1_2_3 road_1_1_3"/>
		</vehicle>
		<vehicle depart="963" id="321">
			<route edges="road_2_1_2 road_1_1_2"/>
		</vehicle>
		<vehicle depart="967" id="322">
			<route edges="road_0_1_0 road_1_1_0"/>
		</vehicle>
		<vehicle depart="970" id="323">
			<route edges="road_0_1_0 road_1_1_0"/>
		</vehicle>
		<vehicle depart="970" id="324">
			<route edges="road_2_1_2 road_1_1_2"/>
		</vehicle>
		<vehicle depart="970" id="325">
			<route edges="road_2_1_2 road_1_1_3"/>
		</vehicle>
		<vehicle depart="971" id="326">
			<route edges="road_0_1_0 road_1_1_0"/>
		</vehicle>
		<vehicle depart="972" id="327">
			<route edges="road_2_1_2 road_1_1_2"/>
		</vehicle>
		<vehicle depart="974" id="328">
			<route edges="road_0_1_0 road_1_1_0"/>
		</vehicle>
		<vehicle depart="976" id="329">
			<route edges="road_0_1_0 road_1_1_0"/>
		</vehicle>
		<vehicle depart="982" id="330">
			<route edges="road_0_1_0 road_1_1_0"/>
		</vehicle>
		<vehicle depart="983" id="331">
			<route edges="road_1_2_3 road_1_1_3"/>
		</vehicle>
		<vehicle depart="984" id="332">
			<route edges="road_0_1_0 road_1_1_0"/>
		</vehicle>
		<vehicle depart="986" id="333">
			<route edges="road_0_1_0 road_1_1_0"/>
		</vehicle>
		<vehicle depart="989" id="334">
			<route edges="road_0_1_0 road_1_1_0"/>
		</vehicle>
		<vehicle depart="989" id="335">