<net xmlns:xsi="http://www.w3.org/2001/XMLSchema-instance" version="1.16" junctionCornerDetail="5" limitTurnSpeed="5.50" xsi:noNamespaceSchemaLocation="http://sumo.dlr.de/xsd/net_file.xsd">

    <location netOffset="300.00,300.00" convBoundary="0.00,0.00,2400.00,2400.00" origBoundary="-300.00,-300.00,2100.00,8400.00" projParameter="!" />

    <edge id=":intersection_0_1_0" function="internal">
        <lane id=":intersection_0_1_0_0" index="0" speed="3.65" length="4.67" shape="0.00,301.60 -1.20,300.80 -1.60,300.00 -1.20,299.20 0.00,298.40" />
    </edge>
    <edge id=":intersection_0_2_0" function="internal">
        <lane id=":intersection_0_2_0_0" index="0" speed="3.65" length="4.67" shape="0.00,601.60 -1.20,600.80 -1.60,600.00 -1.20,599.20 0.00,598.40" />
    </edge>
    <edge id=":intersection_0_3_0" function="internal">
        <lane id=":intersection_0_3_0_0" index="0" speed="3.65" length="4.67" shape="0.00,901.60 -1.20,900.80 -1.60,900.00 -1.20,899.20 0.00,898.40" />
    </edge>
    <edge id=":intersection_0_4_0" function="internal">
        <lane id=":intersection_0_4_0_0" index="0" speed="3.65" length="4.67" shape="0.00,1201.60 -1.20,1200.80 -1.60,1200.00 -1.20,1199.20 0.00,1198.40" />
    </edge>
    <edge id=":intersection_0_5_0" function="internal">
        <lane id=":intersection_0_5_0_0" index="0" speed="3.65" length="4.67" shape="0.00,1501.60 -1.20,1500.80 -1.60,1500.00 -1.20,1499.20 0.00,1498.40" />
    </edge>
    <edge id=":intersection_0_6_0" function="internal">
        <lane id=":intersection_0_6_0_0" index="0" speed="3.65" length="4.67" shape="0.00,1801.60 -1.20,1800.80 -1.60,1800.00 -1.20,1799.20 0.00,1798.40" />
    </edge>
    <edge id=":intersection_0_7_0" function="internal">
        <lane id=":intersection_0_7_0_0" index="0" speed="3.65" length="4.67" shape="0.00,2101.60 -1.20,2100.80 -1.60,2100.00 -1.20,2099.20 0.00,2098.40" />
    </edge>
    <edge id=":intersection_1_0_0" function="internal">
        <lane id=":intersection_1_0_0_0" index="0" speed="3.65" length="4.67" shape="298.40,0.00 299.20,-1.20 300.00,-1.60 300.80,-1.20 301.60,0.00" />
    </edge>
    <edge id=":intersection_1_1_0" function="internal">
        <lane id=":intersection_1_1_0_0" index="0" speed="6.51" length="9.03" shape="292.00,313.60 291.65,311.15 290.60,309.40 288.85,308.35 286.40,308.00" />
        <lane id=":intersection_1_1_0_1" index="1" speed="7.33" length="11.73" shape="292.00,313.60 291.65,309.75 290.60,307.00 288.85,305.35 286.40,304.80" />
        <lane id=":intersection_1_1_0_2" index="2" speed="8.10" length="14.57" shape="292.00,313.60 291.65,308.35 290.60,304.60 288.85,302.35 286.40,301.60" />
    </edge>
    <edge id=":intersection_1_1_3" function="internal">
        <lane id=":intersection_1_1_3_0" index="0" speed="11.11" length="27.37" shape="295.20,313.60 294.70,305.50 293.60,300.00 292.50,294.50 292.00,286.40" />
        <lane id=":intersection_1_1_3_1" index="1" speed="11.11" length="27.37" shape="295.20,313.60 295.20,286.40" />
        <lane id=":intersection_1_1_3_2" index="2" speed="11.11" length="27.37" shape="295.20,313.60 295.70,305.50 296.80,300.00 297.90,294.50 298.40,286.40" />
    </edge>
    <edge id=":intersection_1_1_6" function="internal">
        <lane id=":intersection_1_1_6_0" index="0" speed="11.11" length="29.85" shape="298.40,313.60 299.35,304.15 302.20,297.40 306.95,293.35 313.60,292.00" />
        <lane id=":intersection_1_1_6_1" index="1" speed="10.88" length="27.14" shape="298.40,313.60 299.35,305.55 302.20,299.80 306.95,296.35 313.60,295.20" />
        <lane id=":intersection_1_1_6_2" index="2" speed="10.36" length="24.51" shape="298.40,313.60 299.35,306.95 302.20,302.20 306.95,299.35 313.60,298.40" />
    </edge>
    <edge id=":intersection_1_1_9" function="internal">
        <lane id=":intersection_1_1_9_0" index="0" speed="6.51" length="9.03" shape="313.60,308.00 311.15,308.35 309.40,309.40 308.35,311.15 308.00,313.60" />
        <lane id=":intersection_1_1_9_1" index="1" speed="7.33" length="11.73" shape="313.60,308.00 309.75,308.35 307.00,309.40 305.35,311.15 304.80,313.60" />
        <lane id=":intersection_1_1_9_2" index="2" speed="8.10" length="14.57" shape="313.60,308.00 308.35,308.35 304.60,309.40 302.35,311.15 301.60,313.60" />
    </edge>
    <edge id=":intersection_1_1_12" function="internal">
        <lane id=":intersection_1_1_12_0" index="0" speed="11.11" length="27.37" shape="313.60,304.80 305.50,305.30 300.00,306.40 294.50,307.50 286.40,308.00" />
        <lane id=":intersection_1_1_12_1" index="1" speed="11.11" length="27.37" shape="313.60,304.80 286.40,304.80" />
        <lane id=":intersection_1_1_12_2" index="2" speed="11.11" length="27.37" shape="313.60,304.80 305.50,304.30 300.00,303.20 294.50,302.10 286.40,301.60" />
    </edge>
    <edge id=":intersection_1_1_15" function="internal">
        <lane id=":intersection_1_1_15_0" index="0" speed="11.11" length="29.85" shape="313.60,301.60 304.15,300.65 297.40,297.80 293.35,293.05 292.00,286.40" />
        <lane id=":intersection_1_1_15_1" index="1" speed="10.88" length="27.14" shape="313.60,301.60 305.55,300.65 299.80,297.80 296.35,293.05 295.20,286.40" />
        <lane id=":intersection_1_1_15_2" index="2" speed="10.36" length="24.51" shape="313.60,301.60 306.95,300.65 302.20,297.80 299.35,293.05 298.40,286.40" />
    </edge>
    <edge id=":intersection_1_1_18" function="internal">
        <lane id=":intersection_1_1_18_0" index="0" speed="6.51" length="9.03" shape="308.00,286.40 308.35,288.85 309.40,290.60 311.15,291.65 313.60,292.00" />
        <lane id=":intersection_1_1_18_1" index="1" speed="7.33" length="11.73" shape="308.00,286.40 308.35,290.25 309.40,293.00 311.15,294.65 313.60,295.20" />
        <lane id=":intersection_1_1_18_2" index="2" speed="8.10" length="14.57" shape="308.00,286.40 308.35,291.65 309.40,295.40 311.15,297.65 313.60,298.40" />
    </edge>
    <edge id=":intersection_1_1_21" function="internal">
        <lane id=":intersection_1_1_21_0" index="0" speed="11.11" length="27.37" shape="304.80,286.40 305.30,294.50 306.40,300.00 307.50,305.50 308.00,313.60" />
        <lane id=":intersection_1_1_21_1" index="1" speed="11.11" length="27.37" shape="304.80,286.40 304.80,313.60" />
        <lane id=":intersection_1_1_21_2" index="2" speed="11.11" length="27.37" shape="304.80,286.40 304.30,294.50 303.20,300.00 302.10,305.50 301.60,313.60" />
    </edge>
    <edge id=":intersection_1_1_24" function="internal">
        <lane id=":intersection_1_1_24_0" index="0" speed="11.11" length="29.85" shape="301.60,286.40 300.65,295.85 297.80,302.60 293.05,306.65 286.40,308.00" />
        <lane id=":intersection_1_1_24_1" index="1" speed="10.88" length="27.14" shape="301.60,286.40 300.65,294.45 297.80,300.20 293.05,303.65 286.40,304.80" />
        <lane id=":intersection_1_1_24_2" index="2" speed="10.36" length="24.51" shape="301.60,286.40 300.65,293.05 297.80,297.80 293.05,300.65 286.40,301.60" />
    </edge>
    <edge id=":intersection_1_1_27" function="internal">
        <lane id=":intersection_1_1_27_0" index="0" speed="6.51" length="9.03" shape="286.40,292.00 288.85,291.65 290.60,290.60 291.65,288.85 292.00,286.40" />
        <lane id=":intersection_1_1_27_1" index="1" speed="7.33" length="11.73" shape="286.40,292.00 290.25,291.65 293.00,290.60 294.65,288.85 295.20,286.40" />
        <lane id=":intersection_1_1_27_2" index="2" speed="8.10" length="14.57" shape="286.40,292.00 291.65,291.65 295.40,290.60 297.65,288.85 298.40,286.40" />
    </edge>
    <edge id=":intersection_1_1_30" function="internal">
        <lane id=":intersection_1_1_30_0" index="0" speed="11.11" length="27.37" shape="286.40,295.20 294.50,294.70 300.00,293.60 305.50,292.50 313.60,292.00" />
        <lane id=":intersection_1_1_30_1" index="1" speed="11.11" length="27.37" shape="286.40,295.20 313.60,295.20" />
        <lane id=":intersection_1_1_30_2" index="2" speed="11.11" length="27.37" shape="286.40,295.20 294.50,295.70 300.00,296.80 305.50,297.90 313.60,298.40" />
    </edge>
    <edge id=":intersection_1_1_33" function="internal">
        <lane id=":intersection_1_1_33_0" index="0" speed="11.11" length="29.85" shape="286.40,298.40 295.85,299.35 302.60,302.20 306.65,306.95 308.00,313.60" />
        <lane id=":intersection_1_1_33_1" index="1" speed="10.88" length="27.14" shape="286.40,298.40 294.45,299.35 300.20,302.20 303.65,306.95 304.80,313.60" />
        <lane id=":intersection_1_1_33_2" index="2" speed="10.36" length="24.51" shape="286.40,298.40 293.05,299.35 297.80,302.20 300.65,306.95 301.60,313.60" />
    </edge>
    <edge id=":intersection_1_2_0" function="internal">
        <lane id=":intersection_1_2_0_0" index="0" speed="6.51" length="9.03" shape="292.00,613.60 291.65,611.15 290.60,609.40 288.85,608.35 286.40,608.00" />
        <lane id=":intersection_1_2_0_1" index="1" speed="7.33" length="11.73" shape="292.00,613.60 291.65,609.75 290.60,607.00 288.85,605.35 286.40,604.80" />
        <lane id=":intersection_1_2_0_2" index="2" speed="8.10" length="14.57" shape="292.00,613.60 291.65,608.35 290.60,604.60 288.85,602.35 286.40,601.60" />
    </edge>
    <edge id=":intersection_1_2_3" function="internal">
        <lane id=":intersection_1_2_3_0" index="0" speed="11.11" length="27.37" shape="295.20,613.60 294.70,605.50 293.60,600.00 292.50,594.50 292.00,586.40" />
        <lane id=":intersection_1_2_3_1" index="1" speed="11.11" length="27.37" shape="295.20,613.60 295.20,586.40" />
        <lane id=":intersection_1_2_3_2" index="2" speed="11.11" length="27.37" shape="295.20,613.60 295.70,605.50 296.80,600.00 297.90,594.50 298.40,586.40" />
    </edge>
    <edge id=":intersection_1_2_6" function="internal">
        <lane id=":intersection_1_2_6_0" index="0" speed="11.11" length="29.85" shape="298.40,613.60 299.35,604.15 302.20,597.40 306.95,593.35 313.60,592.00" />
        <lane id=":intersection_1_2_6_1" index="1" speed="10.88" length="27.14" shape="298.40,613.60 299.35,605.55 302.20,599.80 306.95,596.35 313.60,595.20" />
        <lane id=":intersection_1_2_6_2" index="2" speed="10.36" length="24.51" shape="298.40,613.60 299.35,606.95 302.20,602.20 306.95,599.35 313.60,598.40" />
    </edge>
    <edge id=":intersection_1_2_9" function="internal">
        <lane id=":intersection_1_2_9_0" index="0" speed="6.51" length="9.03" shape="313.60,608.00 311.15,608.35 309.40,609.40 308.35,611.15 308.00,613.60" />
        <lane id=":intersection_1_2_9_1" index="1" speed="7.33" length="11.73" shape="313.60,608.00 309.75,608.35 307.00,609.40 305.35,611.15 304.80,613.60" />
        <lane id=":intersection_1_2_9_2" index="2" speed="8.10" length="14.57" shape="313.60,608.00 308.35,608.35 304.60,609.40 302.35,611.15 301.60,613.60" />
    </edge>
    <edge id=":intersection_1_2_12" function="internal">
        <lane id=":intersection_1_2_12_0" index="0" speed="11.11" length="27.37" shape="313.60,604.80 305.50,605.30 300.00,606.40 294.50,607.50 286.40,608.00" />
        <lane id=":intersection_1_2_12_1" index="1" speed="11.11" length="27.37" shape="313.60,604.80 286.40,604.80" />
        <lane id=":intersection_1_2_12_2" index="2" speed="11.11" length="27.37" shape="313.60,604.80 305.50,604.30 300.00,603.20 294.50,602.10 286.40,601.60" />
    </edge>
    <edge id=":intersection_1_2_15" function="internal">
        <lane id=":intersection_1_2_15_0" index="0" speed="11.11" length="29.85" shape="313.60,601.60 304.15,600.65 297.40,597.80 293.35,593.05 292.00,586.40" />
        <lane id=":intersection_1_2_15_1" index="1" speed="10.88" length="27.14" shape="313.60,601.60 305.55,600.65 299.80,597.80 296.35,593.05 295.20,586.40" />
        <lane id=":intersection_1_2_15_2" index="2" speed="10.36" length="24.51" shape="313.60,601.60 306.95,600.65 302.20,597.80 299.35,593.05 298.40,586.40" />
    </edge>
    <edge id=":intersection_1_2_18" function="internal">
        <lane id=":intersection_1_2_18_0" index="0" speed="6.51" length="9.03" shape="308.00,586.40 308.35,588.85 309.40,590.60 311.15,591.65 313.60,592.00" />
        <lane id=":intersection_1_2_18_1" index="1" speed="7.33" length="11.73" shape="308.00,586.40 308.35,590.25 309.40,593.00 311.15,594.65 313.60,595.20" />
        <lane id=":intersection_1_2_18_2" index="2" speed="8.10" length="14.57" shape="308.00,586.40 308.35,591.65 309.40,595.40 311.15,597.65 313.60,598.40" />
    </edge>
    <edge id=":intersection_1_2_21" function="internal">
        <lane id=":intersection_1_2_21_0" index="0" speed="11.11" length="27.37" shape="304.80,586.40 305.30,594.50 306.40,600.00 307.50,605.50 308.00,613.60" />
        <lane id=":intersection_1_2_21_1" index="1" speed="11.11" length="27.37" shape="304.80,586.40 304.80,613.60" />
        <lane id=":intersection_1_2_21_2" index="2" speed="11.11" length="27.37" shape="304.80,586.40 304.30,594.50 303.20,600.00 302.10,605.50 301.60,613.60" />
    </edge>
    <edge id=":intersection_1_2_24" function="internal">
        <lane id=":intersection_1_2_24_0" index="0" speed="11.11" length="29.85" shape="301.60,586.40 300.65,595.85 297.80,602.60 293.05,606.65 286.40,608.00" />
        <lane id=":intersection_1_2_24_1" index="1" speed="10.88" length="27.14" shape="301.60,586.40 300.65,594.45 297.80,600.20 293.05,603.65 286.40,604.80" />
        <lane id=":intersection_1_2_24_2" index="2" speed="10.36" length="24.51" shape="301.60,586.40 300.65,593.05 297.80,597.80 293.05,600.65 286.40,601.60" />
    </edge>
    <edge id=":intersection_1_2_27" function="internal">
        <lane id=":intersection_1_2_27_0" index="0" speed="6.51" length="9.03" shape="286.40,592.00 288.85,591.65 290.60,590.60 291.65,588.85 292.00,586.40" />
        <lane id=":intersection_1_2_27_1" index="1" speed="7.33" length="11.73" shape="286.40,592.00 290.25,591.65 293.00,590.60 294.65,588.85 295.20,586.40" />
        <lane id=":intersection_1_2_27_2" index="2" speed="8.10" length="14.57" shape="286.40,592.00 291.65,591.65 295.40,590.60 297.65,588.85 298.40,586.40" />
    </edge>
    <edge id=":intersection_1_2_30" function="internal">
        <lane id=":intersection_1_2_30_0" index="0" speed="11.11" length="27.37" shape="286.40,595.20 294.50,594.70 300.00,593.60 305.50,592.50 313.60,592.00" />
        <lane id=":intersection_1_2_30_1" index="1" speed="11.11" length="27.37" shape="286.40,595.20 313.60,595.20" />
        <lane id=":intersection_1_2_30_2" index="2" speed="11.11" length="27.37" shape="286.40,595.20 294.50,595.70 300.00,596.80 305.50,597.90 313.60,598.40" />
    </edge>
    <edge id=":intersection_1_2_33" function="internal">
        <lane id=":intersection_1_2_33_0" index="0" speed="11.11" length="29.85" shape="286.40,598.40 295.85,599.35 302.60,602.20 306.65,606.95 308.00,613.60" />
        <lane id=":intersection_1_2_33_1" index="1" speed="10.88" length="27.14" shape="286.40,598.40 294.45,599.35 300.20,602.20 303.65,606.95 304.80,613.60" />
        <lane id=":intersection_1_2_33_2" index="2" speed="10.36" length="24.51" shape="286.40,598.40 293.05,599.35 297.80,602.20 300.65,606.95 301.60,613.60" />
    </edge>
    <edge id=":intersection_1_3_0" function="internal">
        <lane id=":intersection_1_3_0_0" index="0" speed="6.51" length="9.03" shape="292.00,913.60 291.65,911.15 290.60,909.40 288.85,908.35 286.40,908.00" />
        <lane id=":intersection_1_3_0_1" index="1" speed="7.33" length="11.73" shape="292.00,913.60 291.65,909.75 290.60,907.00 288.85,905.35 286.40,904.80" />
        <lane id=":intersection_1_3_0_2" index="2" speed="8.10" length="14.57" shape="292.00,913.60 291.65,908.35 290.60,904.60 288.85,902.35 286.40,901.60" />
    </edge>
    <edge id=":intersection_1_3_3" function="internal">
        <lane id=":intersection_1_3_3_0" index="0" speed="11.11" length="27.37" shape="295.20,913.60 294.70,905.50 293.60,900.00 292.50,894.50 292.00,886.40" />
        <lane id=":intersection_1_3_3_1" index="1" speed="11.11" length="27.37" shape="295.20,913.60 295.20,886.40" />
        <lane id=":intersection_1_3_3_2" index="2" speed="11.11" length="27.37" shape="295.20,913.60 295.70,905.50 296.80,900.00 297.90,894.50 298.40,886.40" />
    </edge>
    <edge id=":intersection_1_3_6" function="internal">
        <lane id=":intersection_1_3_6_0" index="0" speed="11.11" length="29.85" shape="298.40,913.60 299.35,904.15 302.20,897.40 306.95,893.35 313.60,892.00" />
        <lane id=":intersection_1_3_6_1" index="1" speed="10.88" length="27.14" shape="298.40,913.60 299.35,905.55 302.20,899.80 306.95,896.35 313.60,895.20" />
        <lane id=":intersection_1_3_6_2" index="2" speed="10.36" length="24.51" shape="298.40,913.60 299.35,906.95 302.20,902.20 306.95,899.35 313.60,898.40" />
    </edge>
    <edge id=":intersection_1_3_9" function="internal">
        <lane id=":intersection_1_3_9_0" index="0" speed="6.51" length="9.03" shape="313.60,908.00 311.15,908.35 309.40,909.40 308.35,911.15 308.00,913.60" />
        <lane id=":intersection_1_3_9_1" index="1" speed="7.33" length="11.73" shape="313.60,908.00 309.75,908.35 307.00,909.40 305.35,911.15 304.80,913.60" />
        <lane id=":intersection_1_3_9_2" index="2" speed="8.10" length="14.57" shape="313.60,908.00 308.35,908.35 304.60,909.40 302.35,911.15 301.60,913.60" />
    </edge>
    <edge id=":intersection_1_3_12" function="internal">
        <lane id=":intersection_1_3_12_0" index="0" speed="11.11" length="27.37" shape="313.60,904.80 305.50,905.30 300.00,906.40 294.50,907.50 286.40,908.00" />
        <lane id=":intersection_1_3_12_1" index="1" speed="11.11" length="27.37" shape="313.60,904.80 286.40,904.80" />
        <lane id=":intersection_1_3_12_2" index="2" speed="11.11" length="27.37" shape="313.60,904.80 305.50,904.30 300.00,903.20 294.50,902.10 286.40,901.60" />
    </edge>
    <edge id=":intersection_1_3_15" function="internal">
        <lane id=":intersection_1_3_15_0" index="0" speed="11.11" length="29.85" shape="313.60,901.60 304.15,900.65 297.40,897.80 293.35,893.05 292.00,886.40" />
        <lane id=":intersection_1_3_15_1" index="1" speed="10.88" length="27.14" shape="313.60,901.60 305.55,900.65 299.80,897.80 296.35,893.05 295.20,886.40" />
        <lane id=":intersection_1_3_15_2" index="2" speed="10.36" length="24.51" shape="313.60,901.60 306.95,900.65 302.20,897.80 299.35,893.05 298.40,886.40" />
    </edge>
    <edge id=":intersection_1_3_18" function="internal">
        <lane id=":intersection_1_3_18_0" index="0" speed="6.51" length="9.03" shape="308.00,886.40 308.35,888.85 309.40,890.60 311.15,891.65 313.60,892.00" />
        <lane id=":intersection_1_3_18_1" index="1" speed="7.33" length="11.73" shape="308.00,886.40 308.35,890.25 309.40,893.00 311.15,894.65 313.60,895.20" />
        <lane id=":intersection_1_3_18_2" index="2" speed="8.10" length="14.57" shape="308.00,886.40 308.35,891.65 309.40,895.40 311.15,897.65 313.60,898.40" />
    </edge>
    <edge id=":intersection_1_3_21" function="internal">
        <lane id=":intersection_1_3_21_0" index="0" speed="11.11" length="27.37" shape="304.80,886.40 305.30,894.50 306.40,900.00 307.50,905.50 308.00,913.60" />
        <lane id=":intersection_1_3_21_1" index="1" speed="11.11" length="27.37" shape="304.80,886.40 304.80,913.60" />
        <lane id=":intersection_1_3_21_2" index="2" speed="11.11" length="27.37" shape="304.80,886.40 304.30,894.50 303.20,900.00 302.10,905.50 301.60,913.60" />
    </edge>
    <edge id=":intersection_1_3_24" function="internal">
        <lane id=":intersection_1_3_24_0" index="0" speed="11.11" length="29.85" shape="301.60,886.40 300.65,895.85 297.80,902.60 293.05,906.65 286.40,908.00" />
        <lane id=":intersection_1_3_24_1" index="1" speed="10.88" length="27.14" shape="301.60,886.40 300.65,894.45 297.80,900.20 293.05,903.65 286.40,904.80" />
        <lane id=":intersection_1_3_24_2" index="2" speed="10.36" length="24.51" shape="301.60,886.40 300.65,893.05 297.80,897.80 293.05,900.65 286.40,901.60" />
    </edge>
    <edge id=":intersection_1_3_27" function="internal">
        <lane id=":intersection_1_3_27_0" index="0" speed="6.51" length="9.03" shape="286.40,892.00 288.85,891.65 290.60,890.60 291.65,888.85 292.00,886.40" />
        <lane id=":intersection_1_3_27_1" index="1" speed="7.33" length="11.73" shape="286.40,892.00 290.25,891.65 293.00,890.60 294.65,888.85 295.20,886.40" />
        <lane id=":intersection_1_3_27_2" index="2" speed="8.10" length="14.57" shape="286.40,892.00 291.65,891.65 295.40,890.60 297.65,888.85 298.40,886.40" />
    </edge>
    <edge id=":intersection_1_3_30" function="internal">
        <lane id=":intersection_1_3_30_0" index="0" speed="11.11" length="27.37" shape="286.40,895.20 294.50,894.70 300.00,893.60 305.50,892.50 313.60,892.00" />
        <lane id=":intersection_1_3_30_1" index="1" speed="11.11" length="27.37" shape="286.40,895.20 313.60,895.20" />
        <lane id=":intersection_1_3_30_2" index="2" speed="11.11" length="27.37" shape="286.40,895.20 294.50,895.70 300.00,896.80 305.50,897.90 313.60,898.40" />
    </edge>
    <edge id=":intersection_1_3_33" function="internal">
        <lane id=":intersection_1_3_33_0" index="0" speed="11.11" length="29.85" shape="286.40,898.40 295.85,899.35 302.60,902.20 306.65,906.95 308.00,913.60" />
        <lane id=":intersection_1_3_33_1" index="1" speed="10.88" length="27.14" shape="286.40,898.40 294.45,899.35 300.20,902.20 303.65,906.95 304.80,913.60" />
        <lane id=":intersection_1_3_33_2" index="2" speed="10.36" length="24.51" shape="286.40,898.40 293.05,899.35 297.80,902.20 300.65,906.95 301.60,913.60" />
    </edge>
    <edge id=":intersection_1_4_0" function="internal">
        <lane id=":intersection_1_4_0_0" index="0" speed="6.51" length="9.03" shape="292.00,1213.60 291.65,1211.15 290.60,1209.40 288.85,1208.35 286.40,1208.00" />
        <lane id=":intersection_1_4_0_1" index="1" speed="7.33" length="11.73" shape="292.00,1213.60 291.65,1209.75 290.60,1207.00 288.85,1205.35 286.40,1204.80" />
        <lane id=":intersection_1_4_0_2" index="2" speed="8.10" length="14.57" shape="292.00,1213.60 291.65,1208.35 290.60,1204.60 288.85,1202.35 286.40,1201.60" />
    </edge>
    <edge id=":intersection_1_4_3" function="internal">
        <lane id=":intersection_1_4_3_0" index="0" speed="11.11" length="27.37" shape="295.20,1213.60 294.70,1205.50 293.60,1200.00 292.50,1194.50 292.00,1186.40" />
        <lane id=":intersection_1_4_3_1" index="1" speed="11.11" length="27.37" shape="295.20,1213.60 295.20,1186.40" />
        <lane id=":intersection_1_4_3_2" index="2" speed="11.11" length="27.37" shape="295.20,1213.60 295.70,1205.50 296.80,1200.00 297.90,1194.50 298.40,1186.40" />
    </edge>
    <edge id=":intersection_1_4_6" function="internal">
        <lane id=":intersection_1_4_6_0" index="0" speed="11.11" length="29.85" shape="298.40,1213.60 299.35,1204.15 302.20,1197.40 306.95,1193.35 313.60,1192.00" />
        <lane id=":intersection_1_4_6_1" index="1" speed="10.88" length="27.14" shape="298.40,1213.60 299.35,1205.55 302.20,1199.80 306.95,1196.35 313.60,1195.20" />
        <lane id=":intersection_1_4_6_2" index="2" speed="10.36" length="24.51" shape="298.40,1213.60 299.35,1206.95 302.20,1202.20 306.95,1199.35 313.60,1198.40" />
    </edge>
    <edge id=":intersection_1_4_9" function="internal">
        <lane id=":intersection_1_4_9_0" index="0" speed="6.51" length="9.03" shape="313.60,1208.00 311.15,1208.35 309.40,1209.40 308.35,1211.15 308.00,1213.60" />
        <lane id=":intersection_1_4_9_1" index="1" speed="7.33" length="11.73" shape="313.60,1208.00 309.75,1208.35 307.00,1209.40 305.35,1211.15 304.80,1213.60" />
        <lane id=":intersection_1_4_9_2" index="2" speed="8.10" length="14.57" shape="313.60,1208.00 308.35,1208.35 304.60,1209.40 302.35,1211.15 301.60,1213.60" />
    </edge>
    <edge id=":intersection_1_4_12" function="internal">
        <lane id=":intersection_1_4_12_0" index="0" speed="11.11" length="27.37" shape="313.60,1204.80 305.50,1205.30 300.00,1206.40 294.50,1207.50 286.40,1208.00" />
        <lane id=":intersection_1_4_12_1" index="1" speed="11.11" length="27.37" shape="313.60,1204.80 286.40,1204.80" />
        <lane id=":intersection_1_4_12_2" index="2" speed="11.11" length="27.37" shape="313.60,1204.80 305.50,1204.30 300.00,1203.20 294.50,1202.10 286.40,1201.60" />
    </edge>
    <edge id=":intersection_1_4_15" function="internal">
        <lane id=":intersection_1_4_15_0" index="0" speed="11.11" length="29.85" shape="313.60,1201.60 304.15,1200.65 297.40,1197.80 293.35,1193.05 292.00,1186.40" />
        <lane id=":intersection_1_4_15_1" index="1" speed="10.88" length="27.14" shape="313.60,1201.60 305.55,1200.65 299.80,1197.80 296.35,1193.05 295.20,1186.40" />
        <lane id=":intersection_1_4_15_2" index="2" speed="10.36" length="24.51" shape="313.60,1201.60 306.95,1200.65 302.20,1197.80 299.35,1193.05 298.40,1186.40" />
    </edge>
    <edge id=":intersection_1_4_18" function="internal">
        <lane id=":intersection_1_4_18_0" index="0" speed="6.51" length="9.03" shape="308.00,1186.40 308.35,1188.85 309.40,1190.60 311.15,1191.65 313.60,1192.00" />
        <lane id=":intersection_1_4_18_1" index="1" speed="7.33" length="11.73" shape="308.00,1186.40 308.35,1190.25 309.40,1193.00 311.15,1194.65 313.60,1195.20" />
        <lane id=":intersection_1_4_18_2" index="2" speed="8.10" length="14.57" shape="308.00,1186.40 308.35,1191.65 309.40,1195.40 311.15,1197.65 313.60,1198.40" />
    </edge>
    <edge id=":intersection_1_4_21" function="internal">
        <lane id=":intersection_1_4_21_0" index="0" speed="11.11" length="27.37" shape="304.80,1186.40 305.30,1194.50 306.40,1200.00 307.50,1205.50 308.00,1213.60" />
        <lane id=":intersection_1_4_21_1" index="1" speed="11.11" length="27.37" shape="304.80,1186.40 304.80,1213.60" />
        <lane id=":intersection_1_4_21_2" index="2" speed="11.11" length="27.37" shape="304.80,1186.40 304.30,1194.50 303.20,1200.00 302.10,1205.50 301.60,1213.60" />
    </edge>
    <edge id=":intersection_1_4_24" function="internal">
        <lane id=":intersection_1_4_24_0" index="0" speed="11.11" length="29.85" shape="301.60,1186.40 300.65,1195.85 297.80,1202.60 293.05,1206.65 286.40,1208.00" />
        <lane id=":intersection_1_4_24_1" index="1" speed="10.88" length="27.14" shape="301.60,1186.40 300.65,1194.45 297.80,1200.20 293.05,1203.65 286.40,1204.80" />
        <lane id=":intersection_1_4_24_2" index="2" speed="10.36" length="24.51" shape="301.60,1186.40 300.65,1193.05 297.80,1197.80 293.05,1200.65 286.40,1201.60" />
    </edge>
    <edge id=":intersection_1_4_27" function="internal">
        <lane id=":intersection_1_4_27_0" index="0" speed="6.51" length="9.03" shape="286.40,1192.00 288.85,1191.65 290.60,1190.60 291.65,1188.85 292.00,1186.40" />
        <lane id=":intersection_1_4_27_1" index="1" speed="7.33" length="11.73" shape="286.40,1192.00 290.25,1191.65 293.00,1190.60 294.65,1188.85 295.20,1186.40" />
        <lane id=":intersection_1_4_27_2" index="2" speed="8.10" length="14.57" shape="286.40,1192.00 291.65,1191.65 295.40,1190.60 297.65,1188.85 298.40,1186.40" />
    </edge>
    <edge id=":intersection_1_4_30" function="internal">
        <lane id=":intersection_1_4_30_0" index="0" speed="11.11" length="27.37" shape="286.40,1195.20 294.50,1194.70 300.00,1193.60 305.50,1192.50 313.60,1192.00" />
        <lane id=":intersection_1_4_30_1" index="1" speed="11.11" length="27.37" shape="286.40,1195.20 313.60,1195.20" />
        <lane id=":intersection_1_4_30_2" index="2" speed="11.11" length="27.37" shape="286.40,1195.20 294.50,1195.70 300.00,1196.80 305.50,1197.90 313.60,1198.40" />
    </edge>
    <edge id=":intersection_1_4_33" function="internal">
        <lane id=":intersection_1_4_33_0" index="0" speed="11.11" length="29.85" shape="286.40,1198.40 295.85,1199.35 302.60,1202.20 306.65,1206.95 308.00,1213.60" />
        <lane id=":intersection_1_4_33_1" index="1" speed="10.88" length="27.14" shape="286.40,1198.40 294.45,1199.35 300.20,1202.20 303.65,1206.95 304.80,1213.60" />
        <lane id=":intersection_1_4_33_2" index="2" speed="10.36" length="24.51" shape="286.40,1198.40 293.05,1199.35 297.80,1202.20 300.65,1206.95 301.60,1213.60" />
    </edge>
    <edge id=":intersection_1_5_0" function="internal">
        <lane id=":intersection_1_5_0_0" index="0" speed="6.51" length="9.03" shape="292.00,1513.60 291.65,1511.15 290.60,1509.40 288.85,1508.35 286.40,1508.00" />
        <lane id=":intersection_1_5_0_1" index="1" speed="7.33" length="11.73" shape="292.00,1513.60 291.65,1509.75 290.60,1507.00 288.85,1505.35 286.40,1504.80" />
        <lane id=":intersection_1_5_0_2" index="2" speed="8.10" length="14.57" shape="292.00,1513.60 291.65,1508.35 290.60,1504.60 288.85,1502.35 286.40,1501.60" />
    </edge>
    <edge id=":intersection_1_5_3" function="internal">
        <lane id=":intersection_1_5_3_0" index="0" speed="11.11" length="27.37" shape="295.20,1513.60 294.70,1505.50 293.60,1500.00 292.50,1494.50 292.00,1486.40" />
        <lane id=":intersection_1_5_3_1" index="1" speed="11.11" length="27.37" shape="295.20,1513.60 295.20,1486.40" />
        <lane id=":intersection_1_5_3_2" index="2" speed="11.11" length="27.37" shape="295.20,1513.60 295.70,1505.50 296.80,1500.00 297.90,1494.50 298.40,1486.40" />
    </edge>
    <edge id=":intersection_1_5_6" function="internal">
        <lane id=":intersection_1_5_6_0" index="0" speed="11.11" length="29.85" shape="298.40,1513.60 299.35,1504.15 302.20,1497.40 306.95,1493.35 313.60,1492.00" />
        <lane id=":intersection_1_5_6_1" index="1" speed="10.88" length="27.14" shape="298.40,1513.60 299.35,1505.55 302.20,1499.80 306.95,1496.35 313.60,1495.20" />
        <lane id=":intersection_1_5_6_2" index="2" speed="10.36" length="24.51" shape="298.40,1513.60 299.35,1506.95 302.20,1502.20 306.95,1499.35 313.60,1498.40" />
    </edge>
    <edge id=":intersection_1_5_9" function="internal">
        <lane id=":intersection_1_5_9_0" index="0" speed="6.51" length="9.03" shape="313.60,1508.00 311.15,1508.35 309.40,1509.40 308.35,1511.15 308.00,1513.60" />