<?xml version="1.0" encoding="utf-8"?>
	<routes xmlns:xsi="http://www.w3.org/2001/XMLSchema-instance" xsi:noNamespaceSchemaLocation="http://sumo.dlr.de/xsd/routes_file.xsd">
		<vType accel="2.0" decel="4.5" id="pkw" length="5.0" maxSpeed="11.111" minGap="2.5" width="2.0"/>
		<vehicle depart="5" id="0">
			<route edges="road_1_0_1 road_1_1_1"/>
		</vehicle>
		<vehicle depart="38" id="1">
			<route edges="road_2_1_2 road_1_1_2"/>
		</vehicle>
		<vehicle depart="40" id="2">
			<route edges="road_2_1_2 road_1_1_2"/>
		</vehicle>
		<vehicle depart="65" id="3">
			<route edges="road_1_0_1 road_1_1_1"/>
		</vehicle>
		<vehicle depart="67" id="4">
			<route edges="road_1_0_1 road_1_1_1"/>
		</vehicle>
		<vehicle depart="69" id="5">
			<route edges="road_0_1_0 road_1_1_0"/>
		</vehicle>
		<vehicle depart="69" id="6">
			<route edges="road_0_1_0 road_1_1_1"/>
		</vehicle>
		<vehicle depart="71" id="7">
			<route edges="road_0_1_0 road_1_1_0"/>
		</vehicle>
		<vehicle depart="73" id="8">
			<route edges="road_1_0_1 road_1_1_1"/>
		</vehicle>
		<vehicle depart="73" id="9">
			<route edges="road_1_0_1 road_1_1_2"/>
		</vehicle>
		<vehicle depart="77" id="10">
			<route edges="road_1_0_1 road_1_1_1"/>
		</vehicle>
		<vehicle depart="78" id="11">
			<route edges="road_1_2_3 road_1_1_3"/>
		</vehicle>
		<vehicle depart="81" id="12">
			<route edges="road_1_2_3 road_1_1_3"/>
		</vehicle>
		<vehicle depart="84" id="13">
			<route edges="road_1_0_1 road_1_1_1"/>
		</vehicle>
		<vehicle depart="85" id="14">
			<route edges="road_1_2_3 road_1_1_3"/>
		</vehicle>
		<vehicle depart="85" id="15">
			<route edges="road_1_2_3 road_1_1_0"/>
		</vehicle>
		<vehicle depart="93" id="16">
			<route edges="road_1_2_3 road_1_1_3"/>
		</vehicle>
		<vehicle depart="97" id="17">
			<route edges="road_1_0_1 road_1_1_1"/>
		</vehicle>
		<vehicle depart="97" id="18">
			<route edges="road_1_0_1 road_1_1_2"/>
		</vehicle>
		<vehicle depart="103" id="19">
			<route edges="road_0_1_0 road_1_1_0"/>
		</vehicle>
		<vehicle depart="108" id="20">
			<route edges="road_1_2_3 road_1_1_3"/>
		</vehicle>
		<vehicle depart="144" id="21">
			<route edges="road_0_1_0 road_1_1_0"/>
		</vehicle>
		<vehicle depart="154" id="22">
			<route edges="road_0_1_0 road_1_1_0"/>
		</vehicle>
		<vehicle depart="168" id="23">
			<route edges="road_2_1_2 road_1_1_2"/>
		</vehicle>
		<vehicle depart="173" id="24">
			<route edges="road_1_0_1 road_1_1_1"/>
		</vehicle>
		<vehicle depart="178" id="25">
			<route edges="road_1_0_1 road_1_1_1"/>
		</vehicle>
		<vehicle depart="185" id="26">
			<route edges="road_1_0_1 road_1_1_1"/>
		</vehicle>
		<vehicle depart="189" id="27">
			<route edges="road_1_0_1 road_1_1_1"/>
		</vehicle>
		<vehicle depart="210" id="28">
			<route edges="road_2_1_2 road_1_1_2"/>
		</vehicle>
		<vehicle depart="219" id="29">
			<route edges="road_1_2_3 road_1_1_3"/>
		</vehicle>
		<vehicle depart="234" id="30">
			<route edges="road_1_2_3 road_1_1_3"/>
		</vehicle>
		<vehicle depart="242" id="31">
			<route edges="road_1_0_1 road_1_1_1"/>
		</vehicle>
		<vehicle depart="247" id="32">
			<route edges="road_1_0_1 road_1_1_1"/>
		</vehicle>
		<vehicle depart="253" id="33">
			<route edges="road_1_0_1 road_1_1_1"/>
		</vehicle>
		<vehicle depart="268" id="34">
			<route edges="road_1_0_1 road_1_1_1"/>
		</vehicle>
		<vehicle depart="306" id="35">
			<route edges="road_1_0_1 road_1_1_1"/>
		</vehicle>
		<vehicle depart="309" id="36">
			<route edges="road_1_0_1 road_1_1_1"/>
		</vehicle>
		<vehicle depart="315" id="37">
			<route edges="road_0_1_0 road_1_1_0"/>
		</vehicle>
		<vehicle depart="327" id="38">
			<route edges="road_1_0_1 road_1_1_1"/>
		</vehicle>
		<vehicle depart="342" id="39">
			<route edges="road_1_0_1 road_1_1_1"/>
		</vehicle>
		<vehicle depart="374" id="40">
			<route edges="road_1_0_1 road_1_1_1"/>
		</vehicle>
		<vehicle depart="380" id="41">
			<route edges="road_1_0_1 road_1_1_1"/>
		</vehicle>
		<vehicle depart="391" id="42">
			<route edges="road_2_1_2 road_1_1_2"/>
		</vehicle>
		<vehicle depart="400" id="43">
			<route edges="road_1_0_1 road_1_1_1"/>
		</vehicle>
		<vehicle depart="400" id="44">
			<route edges="road_1_0_1 road_1_1_2"/>
		</vehicle>
		<vehicle depart="407" id="45">
			<route edges="road_1_2_3 road_1_1_3"/>
		</vehicle>
		<vehicle depart="412" id="46">
			<route edges="road_1_2_3 road_1_1_3"/>
		</vehicle>
		<vehicle depart="415" id="47">
			<route edges="road_1_0_1 road_1_1_1"/>
		</vehicle>
		<vehicle depart="416" id="48">
			<route edges="road_1_2_3 road_1_1_3"/>
		</vehicle>
		<vehicle depart="419" id="49">
			<route edges="road_1_2_3 road_1_1_3"/>
		</vehicle>
		<vehicle depart="422" id="50">
			<route edges="road_1_0_1 road_1_1_1"/>
		</vehicle>
		<vehicle depart="425" id="51">
			<route edges="road_1_0_1 road_1_1_1"/>
		</vehicle>
		<vehicle depart="427" id="52">
			<route edges="road_0_1_0 road_1_1_0"/>
		</vehicle>
		<vehicle depart="427" id="53">
			<route edges="road_2_1_2 road_1_1_2"/>
		</vehicle>
		<vehicle depart="428" id="54">
			<route edges="road_1_0_1 road_1_1_1"/>
		</vehicle>
		<vehicle depart="430" id="55">
			<route edges="road_1_2_3 road_1_1_3"/>
		</vehicle>
		<vehicle depart="436" id="56">
			<route edges="road_1_2_3 road_1_1_3"/>
		</vehicle>
		<vehicle depart="438" id="57">
			<route edges="road_1_0_1 road_1_1_1"/>
		</vehicle>
		<vehicle depart="454" id="58">
			<route edges="road_1_2_3 road_1_1_3"/>
		</vehicle>
		<vehicle depart="478" id="59">
			<route edges="road_2_1_2 road_1_1_2"/>
		</vehicle>
		<vehicle depart="490" id="60">
			<route edges="road_1_0_1 road_1_1_1"/>
		</vehicle>
		<vehicle depart="505" id="61">
			<route edges="road_1_0_1 road_1_1_1"/>
		</vehicle>
		<vehicle depart="518" id="62">
			<route edges="road_1_0_1 road_1_1_1"/>
		</vehicle>
		<vehicle depart="522" id="63">
			<route edges="road_1_0_1 road_1_1_1"/>
		</vehicle>
		<vehicle depart="522" id="64">
			<route edges="road_1_0_1 road_1_1_2"/>
		</vehicle>
		<vehicle depart="526" id="65">
			<route edges="road_1_0_1 road_1_1_1"/>
		</vehicle>
		<vehicle depart="528" id="66">
			<route edges="road_1_0_1 road_1_1_1"/>
		</vehicle>
		<vehicle depart="532" id="67">
			<route edges="road_1_0_1 road_1_1_1"/>
		</vehicle>
		<vehicle depart="532" id="68">
			<route edges="road_1_2_3 road_1_1_3"/>
		</vehicle>
		<vehicle depart="533" id="69">
			<route edges="road_1_0_1 road_1_1_1"/>
		</vehicle>
		<vehicle depart="541" id="70">
			<route edges="road_1_0_1 road_1_1_1"/>
		</vehicle>
		<vehicle depart="542" id="71">
			<route edges="road_1_2_3 road_1_1_3"/>
		</vehicle>
		<vehicle depart="542" id="72">
			<route edges="road_1_2_3 road_1_1_0"/>
		</vehicle>
		<vehicle depart="549" id="73">
			<route edges="road_1_2_3 road_1_1_3"/>
		</vehicle>
		<vehicle depart="556" id="74">
			<route edges="road_1_2_3 road_1_1_3"/>
		</vehicle>
		<vehicle depart="557" id="75">
			<route edges="road_1_2_3 road_1_1_3"/>
		</vehicle>
		<vehicle depart="573" id="76">
			<route edges="road_2_1_2 road_1_1_2"/>
		</vehicle>
		<vehicle depart="577" id="77">
			<route edges="road_1_2_3 road_1_1_3"/>
		</vehicle>
		<vehicle depart="587" id="78">
			<route edges="road_0_1_0 road_1_1_0"/>
		</vehicle>
		<vehicle depart="624" id="79">
			<route edges="road_1_0_1 road_1_1_1"/>
		</vehicle>
		<vehicle depart="639" id="80">
			<route edges="road_1_0_1 road_1_1_1"/>
		</vehicle>
		<vehicle depart="641" id="81">
			<route edges="road_1_2_3 road_1_1_3"/>
		</vehicle>
		<vehicle depart="641" id="82">
			<route edges="road_1_2_3 road_1_1_0"/>
		</vehicle>
		<vehicle depart="655" id="83">
			<route edges="road_1_0_1 road_1_1_1"/>
		</vehicle>
		<vehicle depart="656" id="84">
			<route edges="road_1_0_1 road_1_1_1"/>
		</vehicle>
		<vehicle depart="656" id="85">
			<route edges="road_1_0_1 road_1_1_2"/>
		</vehicle>
		<vehicle depart="659" id="86">
			<route edges="road_1_0_1 road_1_1_1"/>
		</vehicle>
		<vehicle depart="659" id="87">
			<route edges="road_1_0_1 road_1_1_2"/>
		</vehicle>
		<vehicle depart="664" id="88">
			<route edges="road_1_0_1 road_1_1_1"/>
		</vehicle>
		<vehicle depart="665" id="89">
			<route edges="road_1_2_3 road_1_1_3"/>
		</vehicle>
		<vehicle depart="673" id="90">
			<route edges="road_1_0_1 road_1_1_1"/>
		</vehicle>
		<vehicle depart="695" id="91">
			<route edges="road_2_1_2 road_1_1_2"/>
		</vehicle>
		<vehicle depart="697" id="92">
			<route edges="road_1_2_3 road_1_1_3"/>
		</vehicle>
		<vehicle depart="699" id="93">
			<route edges="road_1_0_1 road_1_1_1"/>
		</vehicle>
		<vehicle depart="699" id="94">
			<route edges="road_1_0_1 road_1_1_2"/>
		</vehicle>
		<vehicle depart="705" id="95">
			<route edges="road_2_1_2 road_1_1_2"/>
		</vehicle>
		<vehicle depart="729" id="96">
			<route edges="road_0_1_0 road_1_1_0"/>
		</vehicle>
		<vehicle depart="733" id="97">
			<route edges="road_0_1_0 road_1_1_0"/>
		</vehicle>
		<vehicle depart="734" id="98">
			<route edges="road_1_0_1 road_1_1_1"/>
		</vehicle>
		<vehicle depart="734" id="99">
			<route edges="road_1_2_3 road_1_1_3"/>
		</vehicle>
		<vehicle depart="736" id="100">
			<route edges="road_1_0_1 road_1_1_1"/>
		</vehicle>
		<vehicle depart="740" id="101">
			<route edges="road_1_2_3 road_1_1_3"/>
		</vehicle>
		<vehicle depart="741" id="102">
			<route edges="road_1_0_1 road_1_1_1"/>
		</vehicle>
		<vehicle depart="742" id="103">
			<route edges="road_1_0_1 road_1_1_1"/>
		</vehicle>
		<vehicle depart="742" id="104">
			<route edges="road_1_0_1 road_1_1_2"/>
		</vehicle>
		<vehicle depart="747" id="105">
			<route edges="road_1_0_1 road_1_1_1"/>
		</vehicle>
		<vehicle depart="747" id="106">
			<route edges="road_1_2_3 road_1_1_3"/>
		</vehicle>
		<vehicle depart="748" id="107">
			<route edges="road_1_0_1 road_1_1_1"/>
		</vehicle>
		<vehicle depart="749" id="108">
			<route edges="road_1_0_1 road_1_1_1"/>
		</vehicle>
		<vehicle depart="754" id="109">
			<route edges="road_0_1_0 road_1_1_0"/>
		</vehicle>
		<vehicle depart="754" id="110">
			<route edges="road_0_1_0 road_1_1_1"/>
		</vehicle>
		<vehicle depart="754" id="111">
			<route edges="road_1_0_1 road_1_1_1"/>
		</vehicle>
		<vehicle depart="762" id="112">
			<route edges="road_1_0_1 road_1_1_1"/>
		</vehicle>
		<vehicle depart="769" id="113">
			<route edges="road_1_2_3 road_1_1_3"/>
		</vehicle>
		<vehicle depart="769" id="114">
			<route edges="road_1_2_3 road_1_1_0"/>
		</vehicle>
		<vehicle depart="776" id="115">
			<route edges="road_0_1_0 road_1_1_0"/>
		</vehicle>
		<vehicle depart="776" id="116">
			<route edges="road_1_0_1 road_1_1_1"/>
		</vehicle>
		<vehicle depart="777" id="117">
			<route edges="road_1_0_1 road_1_1_1"/>
		</vehicle>
		<vehicle depart="812" id="118">
			<route edges="road_0_1_0 road_1_1_0"/>
		</vehicle>
		<vehicle depart="849" id="119">
			<route edges="road_1_2_3 road_1_1_3"/>
		</vehicle>
		<vehicle depart="852" id="120">
			<route edges="road_2_1_2 road_1_1_2"/>
		</vehicle>
		<vehicle depart="856" id="121">
			<route edges="road_1_0_1 road_1_1_1"/>
		</vehicle>
		<vehicle depart="857" id="122">
			<route edges="road_1_2_3 road_1_1_3"/>
		</vehicle>
		<vehicle depart="862" id="123">
			<route edges="road_1_0_1 road_1_1_1"/>
		</vehicle>
		<vehicle depart="869" id="124">
			<route edges="road_1_0_1 road_1_1_1"/>
		</vehicle>
		<vehicle depart="869" id="125">
			<route edges="road_1_0_1 road_1_1_2"/>
		</vehicle>
		<vehicle depart="873" id="126">
			<route edges="road_1_0_1 road_1_1_1"/>
		</vehicle>
		<vehicle depart="873" id="127">
			<route edges="road_1_0_1 road_1_1_2"/>
		</vehicle>
		<vehicle depart="876" id="128">
			<route edges="road_1_2_3 road_1_1_3"/>
		</vehicle>
		<vehicle depart="876" id="129">
			<route edges="road_1_0_1 road_1_1_1"/>
		</vehicle>
		<vehicle depart="882" id="130">
			<route edges="road_1_0_1 road_1_1_1"/>
		</vehicle>
		<vehicle depart="897" id="131">
			<route edges="road_1_0_1 road_1_1_1"/>
		</vehicle>
		<vehicle depart="898" id="132">
			<route edges="road_1_0_1 road_1_1_1"/>
		</vehicle>
		<vehicle depart="904" id="133">
			<route edges="road_1_2_3 road_1_1_3"/>
		</vehicle>
		<vehicle depart="904" id="134">
			<route edges="road_0_1_0 road_1_1_0"/>
		</vehicle>
		<vehicle depart="908" id="135">
			<route edges="road_1_0_1 road_1_1_1"/>
		</vehicle>
		<vehicle depart="912" id="136">
			<route edges="road_2_1_2 road_1_1_2"/>
		</vehicle>
		<vehicle depart="936" id="137">
			<route edges="road_1_0_1 road_1_1_1"/>
		</vehicle>
		<vehicle depart="945" id="138">
			<route edges="road_1_0_1 road_1_1_1"/>
		</vehicle>
		<vehicle depart="947" id="139">
			<route edges="road_0_1_0 road_1_1_0"/>
		</vehicle>
		<vehicle depart="952" id="140">
			<route edges="road_1_0_1 road_1_1_1"/>
		</vehicle>
		<vehicle depart="961" id="141">
			<route edges="road_1_2_3 road_1_1_3"/>
		</vehicle>
		<vehicle depart="966" id="142">
			<route edges="road_1_0_1 road_1_1_1"/>
		</vehicle>
		<vehicle depart="968" id="143">
			<route edges="road_1_0_1 road_1_1_1"/>
		</vehicle>
		<vehicle depart="968" id="144">
			<route edges="road_1_0_1 road_1_1_2"/>
		</vehicle>
		<vehicle depart="1008" id="145">
			<route edges="road_1_0_1 road_1_1_1"/>
		</vehicle>
		<vehicle depart="1009" id="146">
			<route edges="road_1_0_1 road_1_1_1"/>
		</vehicle>
		<vehicle depart="1021" id="147">
			<route edges="road_1_0_1 road_1_1_1"/>
		</vehicle>
		<vehicle depart="1024" id="148">
			<route edges="road_1_2_3 road_1_1_3"/>
		</vehicle>
		<vehicle depart="1029" id="149">
			<route edges="road_2_1_2 road_1_1_2"/>
		</vehicle>
		<vehicle depart="1061" id="150">
			<route edges="road_1_0_1 road_1_1_1"/>
		</vehicle>
		<vehicle depart="1069" id="151">
			<route edges="road_1_0_1 road_1_1_1"/>
		</vehicle>
		<vehicle depart="1069" id="152">
			<route edges="road_2_1_2 road_1_1_2"/>
		</vehicle>
		<vehicle depart="1069" id="153">
			<route edges="road_1_0_1 road_1_1_1"/>
		</vehicle>
		<vehicle depart="1070" id="154">
			<route edges="road_1_0_1 road_1_1_1"/>
		</vehicle>
		<vehicle depart="1072" id="155">
			<route edges="road_1_0_1 road_1_1_1"/>
		</vehicle>
		<vehicle depart="1072" id="156">
			<route edges="road_1_0_1 road_1_1_2"/>
		</vehicle>
		<vehicle depart="1079" id="157">
			<route edges="road_1_2_3 road_1_1_3"/>
		</vehicle>
		<vehicle depart="1081" id="158">
			<route edges="road_1_0_1 road_1_1_1"/>
		</vehicle>
		<vehicle depart="1083" id="159">
			<route edges="road_1_0_1 road_1_1_1"/>
		</vehicle>
		<vehicle depart="1083" id="160">
			<route edges="road_1_0_1 road_1_1_2"/>
		</vehicle>
		<vehicle depart="1085" id="161">
			<route edges="road_1_0_1 road_1_1_1"/>
		</vehicle>
		<vehicle depart="1086" id="162">
			<route edges="road_1_2_3 road_1_1_3"/>
		</vehicle>
		<vehicle depart="1086" id="163">
			<route edges="road_1_0_1 road_1_1_1"/>
		</vehicle>
		<vehicle depart="1087" id="164">
			<route edges="road_1_0_1 road_1_1_1"/>
		</vehicle>
		<vehicle depart="1089" id="165">
			<route edges="road_1_2_3 road_1_1_3"/>
		</vehicle>
		<vehicle depart="1091" id="166">
			<route edges="road_1_0_1 road_1_1_1"/>
		</vehicle>
		<vehicle depart="1092" id="167">
			<route edges="road_0_1_0 road_1_1_0"/>
		</vehicle>
		<vehicle depart="1092" id="168">
			<route edges="road_1_2_3 road_1_1_3"/>
		</vehicle>
		<vehicle depart="1094" id="169">
			<route edges="road_1_2_3 road_1_1_3"/>
		</vehicle>
		<vehicle depart="1095" id="170">
			<route edges="road_1_0_1 road_1_1_1"/>
		</vehicle>
		<vehicle depart="1096" id="171">
			<route edges="road_1_0_1 road_1_1_1"/>
		</vehicle>
		<vehicle depart="1096" id="172">
			<route edges="road_1_2_3 road_1_1_3"/>
		</vehicle>
		<vehicle depart="1097" id="173">
			<route edges="road_2_1_2 road_1_1_2"/>
		</vehicle>
		<vehicle depart="1097" id="174">
			<route edges="road_2_1_2 road_1_1_3"/>
		</vehicle>
		<vehicle depart="1107" id="175">
			<route edges="road_1_0_1 road_1_1_1"/>
		</vehicle>
		<vehicle depart="1108" id="176">
			<route edges="road_1_0_1 road_1_1_1"/>
		</vehicle>
		<vehicle depart="1110" id="177">
			<route edges="road_1_0_1 road_1_1_1"/>
		</vehicle>
		<vehicle depart="1114" id="178">
			<route edges="road_1_0_1 road_1_1_1"/>
		</vehicle>
		<vehicle depart="1126" id="179">
			<route edges="road_1_0_1 road_1_1_1"/>
		</vehicle>
		<vehicle depart="1130" id="180">
			<route edges="road_1_0_1 road_1_1_1"/>
		</vehicle>
		<vehicle depart="1138" id="181">
			<route edges="road_0_1_0 road_1_1_0"/>
		</vehicle>
		<vehicle depart="1138" id="182">
			<route edges="road_0_1_0 road_1_1_1"/>
		</vehicle>
		<vehicle depart="1150" id="183">
			<route edges="road_1_0_1 road_1_1_1"/>
		</vehicle>
		<vehicle depart="1164" id="184">
			<route edges="road_0_1_0 road_1_1_0"/>
		</vehicle>
		<vehicle depart="1173" id="185">
			<route edges="road_1_2_3 road_1_1_3"/>
		</vehicle>
		<vehicle depart="1175" id="186">
			<route edges="road_1_0_1 road_1_1_1"/>
		</vehicle>
		<vehicle depart="1177" id="187">
			<route edges="road_1_0_1 road_1_1_1"/>
		</vehicle>
		<vehicle depart="1180" id="188">
			<route edges="road_1_0_1 road_1_1_1"/>
		</vehicle>
		<vehicle depart="1180" id="189">
			<route edges="road_1_0_1 road_1_1_2"/>
		</vehicle>
		<vehicle depart="1184" id="190">
			<route edges="road_1_2_3 road_1_1_3"/>
		</vehicle>
		<vehicle depart="1185" id="191">
			<route edges="road_1_0_1 road_1_1_1"/>
		</vehicle>
		<vehicle depart="1189" id="192">
			<route edges="road_1_2_3 road_1_1_3"/>
		</vehicle>
		<vehicle depart="1189" id="193">
			<route edges="road_1_2_3 road_1_1_0"/>
		</vehicle>
		<vehicle depart="1189" id="194">
			<route edges="road_2_1_2 road_1_1_2"/>
		</vehicle>
		<vehicle depart="1190" id="195">
			<route edges="road_1_0_1 road_1_1_1"/>
		</vehicle>
		<vehicle depart="1193" id="196">
			<route edges="road_1_2_3 road_1_1_3"/>
		</vehicle>
		<vehicle depart="1194" id="197">
			<route edges="road_1_2_3 road_1_1_3"/>
		</vehicle>
		<vehicle depart="1194" id="198">
			<route edges="road_1_2_3 road_1_1_0"/>
		</vehicle>
		<vehicle depart="1195" id="199">
			<route edges="road_1_0_1 road_1_1_1"/>
		</vehicle>
		<vehicle depart="1196" id="200">
			<route edges="road_1_0_1 road_1_1_1"/>
		</vehicle>
		<vehicle depart="1196" id="201">
			<route edges="road_1_2_3 road_1_1_3"/>
		</vehicle>
		<vehicle depart="1199" id="202">
			<route edges="road_1_2_3 road_1_1_3"/>
		</vehicle>
		<vehicle depart="1201" id="203">
			<route edges="road_1_0_1 road_1_1_1"/>
		</vehicle>
		<vehicle depart="1203" id="204">
			<route edges="road_1_0_1 road_1_1_1"/>
		</vehicle>
		<vehicle depart="1204" id="205">
			<route edges="road_1_2_3 road_1_1_3"/>
		</vehicle>
		<vehicle depart="1205" id="206">
			<route edges="road_1_0_1 road_1_1_1"/>
		</vehicle>
		<vehicle depart="1205" id="207">
			<route edges="road_1_0_1 road_1_1_2"/>
		</vehicle>
		<vehicle depart="1206" id="208">
			<route edges="road_1_2_3 road_1_1_3"/>
		</vehicle>
		<vehicle depart="1206" id="209">
			<route edges="road_0_1_0 road_1_1_0"/>
		</vehicle>
		<vehicle depart="1210" id="210">
			<route edges="road_1_0_1 road_1_1_1"/>
		</vehicle>
		<vehicle depart="1217" id="211">
			<route edges="road_2_1_2 road_1_1_2"/>
		</vehicle>
		<vehicle depart="1220" id="212">
			<route edges="road_1_0_1 road_1_1_1"/>
		</vehicle>
		<vehicle depart="1220" id="213">
			<route edges="road_2_1_2 road_1_1_2"/>
		</vehicle>
		<vehicle depart="1221" id="214">
			<route edges="road_1_0_1 road_1_1_1"/>
		</vehicle>
		<vehicle depart="1263" id="215">
			<route edges="road_1_0_1 road_1_1_1"/>
		</vehicle>
		<vehicle depart="1266" id="216">
			<route edges="road_0_1_0 road_1_1_0"/>
		</vehicle>
		<vehicle depart="1270" id="217">
			<route edges="road_1_0_1 road_1_1_1"/>
		</vehicle>
		<vehicle depart="1273" id="218">
			<route edges="road_1_0_1 road_1_1_1"/>
		</vehicle>
		<vehicle depart="1276" id="219">
			<route edges="road_1_0_1 road_1_1_1"/>
		</vehicle>
		<vehicle depart="1278" id="220">
			<route edges="road_1_0_1 road_1_1_1"/>
		</vehicle>
		<vehicle depart="1282" id="221">
			<route edges="road_1_0_1 road_1_1_1"/>
		</vehicle>
		<vehicle depart="1284" id="222">
			<route edges="road_1_2_3 road_1_1_3"/>
		</vehicle>
		<vehicle depart="1287" id="223">
			<route edges="road_1_0_1 road_1_1_1"/>
		</vehicle>
		<vehicle depart="1293" id="224">
			<route edges="road_1_0_1 road_1_1_1"/>
		</vehicle>
		<vehicle depart="1298" id="225">
			<route edges="road_1_0_1 road_1_1_1"/>
		</vehicle>
		<vehicle depart="1298" id="226">
			<route edges="road_1_0_1 road_1_1_2"/>
		</vehicle>
		<vehicle depart="1299" id="227">
			<route edges="road_0_1_0 road_1_1_0"/>
		</vehicle>
		<vehicle depart="1304" id="228">
			<route edges="road_0_1_0 road_1_1_0"/>
		</vehicle>
		<vehicle depart="1318" id="229">
			<route edges="road_1_0_1 road_1_1_1"/>
		</vehicle>
		<vehicle depart="1322" id="230">
			<route edges="road_1_0_1 road_1_1_1"/>
		</vehicle>
		<vehicle depart="1340" id="231">
			<route edges="road_1_2_3 road_1_1_3"/>
		</vehicle>
		<vehicle depart="1375" id="232">
			<route edges="road_1_0_1 road_1_1_1"/>
		</vehicle>
		<vehicle depart="1377" id="233">
			<route edges="road_0_1_0 road_1_1_0"/>
		</vehicle>
		<vehicle depart="1390" id="234">
			<route edges="road_1_0_1 road_1_1_1"/>
		</vehicle>
		<vehicle depart="1392" id="235">
			<route edges="road_1_2_3 road_1_1_3"/>
		</vehicle>
		<vehicle depart="1393" id="236">
			<route edges="road_0_1_0 road_1_1_0"/>
		</vehicle>
		<vehicle depart="1393" id="237">
			<route edges="road_0_1_0 road_1_1_1"/>
		</vehicle>
		<vehicle depart="1398" id="238">
			<route edges="road_1_0_1 road_1_1_1"/>
		</vehicle>
		<vehicle depart="1399" id="239">
			<route edges="road_1_2_3 road_1_1_3"/>
		</vehicle>
		<vehicle depart="1399" id="240">
			<route edges="road_1_2_3 road_1_1_3"/>
		</vehicle>
		<vehicle depart="1402" id="241">
			<route edges="road_1_2_3 road_1_1_3"/>
		</vehicle>
		<vehicle depart="1404" id="242">
			<route edges="road_1_0_1 road_1_1_1"/>
		</vehicle>
		<vehicle depart="1404" id="243">
			<route edges="road_1_0_1 road_1_1_1"/>
		</vehicle>
		<vehicle depart="1408" id="244">
			<route edges="road_1_0_1 road_1_1_1"/>
		</vehicle>
		<vehicle depart="1410" id="245">
			<route edges="road_1_0_1 road_1_1_1"/>
		</vehicle>
		<vehicle depart="1418" id="246">
			<route edges="road_1_0_1 road_1_1_1"/>
		</vehicle>
		<vehicle depart="1421" id="247">
			<route edges="road_1_0_1 road_1_1_1"/>
		</vehicle>
		<vehicle depart="1424" id="248">
			<route edges="road_1_0_1 road_1_1_1"/>
		</vehicle>
		<vehicle depart="1436" id="249">
			<route edges="road_1_0_1 road_1_1_1"/>
		</vehicle>
		<vehicle depart="1466" id="250">
			<route edges="road_0_1_0 road_1_1_0"/>
		</vehicle>
		<vehicle depart="1467" id="251">
			<route edges="road_0_1_0 road_1_1_0"/>
		</vehicle>
		<vehicle depart="1473" id="252">
			<route edges="road_2_1_2 road_1_1_2"/>
		</vehicle>
		<vehicle depart="1478" id="253">
			<route edges="road_1_0_1 road_1_1_1"/>
		</vehicle>
		<vehicle depart="1478" id="254">
			<route edges="road_1_0_1 road_1_1_2"/>
		</vehicle>
		<vehicle depart="1481" id="255">
			<route edges="road_1_0_1 road_1_1_1"/>
		</vehicle>
		<vehicle depart="1481" id="256">
			<route edges="road_1_0_1 road_1_1_2"/>
		</vehicle>
		<vehicle depart="1502" id="257">
			<route edges="road_1_0_1 road_1_1_1"/>
		</vehicle>
		<vehicle depart="1504" id="258">
			<route edges="road_1_0_1 road_1_1_1"/>
		</vehicle>
		<vehicle depart="1515" id="259">
			<route edges="road_1_2_3 road_1_1_3"/>
		</vehicle>
		<vehicle depart="1519" id="260">
			<route edges="road_1_0_1 road_1_1_1"/>
		</vehicle>
		<vehicle depart="1519" id="261">
			<route edges="road_1_0_1 road_1_1_1"/>
		</vehicle>
		<vehicle depart="1525" id="262">
			<route edges="road_1_2_3 road_1_1_3"/>
		</vehicle>
		<vehicle depart="1526" id="263">
			<route edges="road_2_1_2 road_1_1_2"/>
		</vehicle>
		<vehicle depart="1539" id="264">
			<route edges="road_0_1_0 road_1_1_0"/>
		</vehicle>
		<vehicle depart="1555" id="265">
			<route edges="road_1_2_3 road_1_1_3"/>
		</vehicle>
		<vehicle depart="1575" id="266">
			<route edges="road_2_1_2 road_1_1_2"/>
		</vehicle>
		<vehicle depart="1575" id="267">
			<route edges="road_2_1_2 road_1_1_3"/>
		</vehicle>
		<vehicle depart="1577" id="268">
			<route edges="road_0_1_0 road_1_1_0"/>
		</vehicle>
		<vehicle depart="1595" id="269">
			<route edges="road_1_0_1 road_1_1_1"/>
		</vehicle>
		<vehicle depart="1600" id="270">
			<route edges="road_1_0_1 road_1_1_1"/>
		</vehicle>
		<vehicle depart="1614" id="271">
			<route edges="road_0_1_0 road_1_1_0"/>
		</vehicle>
		<vehicle depart="1614" id="272">
			<route edges="road_1_0_1 road_1_1_1"/>
		</vehicle>
		<vehicle depart="1614" id="273">
			<route edges="road_1_0_1 road_1_1_2"/>
		</vehicle>
		<vehicle depart="1619" id="274">
			<route edges="road_1_0_1 road_1_1_1"/>
		</vehicle>
		<vehicle depart="1621" id="275">
			<route edges="road_1_0_1 road_1_1_1"/>
		</vehicle>
		<vehicle depart="1626" id="276">
			<route edges="road_1_0_1 road_1_1_1"/>
		</vehicle>
		<vehicle depart="1627" id="277">
			<route edges="road_1_2_3 road_1_1_3"/>
		</vehicle>
		<vehicle depart="1628" id="278">
			<route edges="road_1_0_1 road_1_1_1"/>
		</vehicle>
		<vehicle depart="1630" id="279">
			<route edges="road_1_2_3 road_1_1_3"/>
		</vehicle>
		<vehicle depart="1636" id="280">
			<route edges="road_1_0_1 road_1_1_1"/>
		</vehicle>
		<vehicle depart="1644" id="281">
			<route edges="road_0_1_0 road_1_1_0"/>
		</vehicle>
		<vehicle depart="1644" id="282">
			<route edges="road_1_0_1 road_1_1_1"/>
		</vehicle>
		<vehicle depart="1647" id="283">
			<route edges="road_1_0_1 road_1_1_1"/>
		</vehicle>
		<vehicle depart="1650" id="284">
			<route edges="road_1_0_1 road_1_1_1"/>
		</vehicle>
		<vehicle depart="1652" id="285">
			<route edges="road_1_0_1 road_1_1_1"/>
		</vehicle>
		<vehicle depart="1653" id="286">
			<route edges="road_1_0_1 road_1_1_1"/>
		</vehicle>
		<vehicle depart="1658" id="287">
			<route edges="road_2_1_2 road_1_1_2"/>
		</vehicle>
		<vehicle depart="1659" id="288">
			<route edges="road_0_1_0 road_1_1_0"/>
		</vehicle>
		<vehicle depart="1660" id="289">
			<route edges="road_1_0_1 road_1_1_1"/>
		</vehicle>
		<vehicle depart="1669" id="290">
			<route edges="road_1_2_3 road_1_1_3"/>
		</vehicle>
		<vehicle depart="1679" id="291">
			<route edges="road_1_2_3 road_1_1_3"/>
		</vehicle>
		<vehicle depart="1682" id="292">
			<route edges="road_0_1_0 road_1_1_0"/>
		</vehicle>
		<vehicle depart="1693" id="293">
			<route edges="road_0_1_0 road_1_1_0"/>
		</vehicle>
		<vehicle depart="1707" id="294">
			<route edges="road_1_2_3 road_1_1_3"/>
		</vehicle>
		<vehicle depart="1732" id="295">
			<route edges="road_1_0_1 road_1_1_1"/>
		</vehicle>
		<vehicle depart="1733" id="296">
			<route edges="road_1_0_1 road_1_1_1"/>
		</vehicle>
		<vehicle depart="1736" id="297">
			<route edges="road_2_1_2 road_1_1_2"/>
		</vehicle>
		<vehicle depart="1737" id="298">
			<route edges="road_1_0_1 road_1_1_1"/>
		</vehicle>
		<vehicle depart="1739" id="299">
			<route edges="road_0_1_0 road_1_1_0"/>
		</vehicle>
		<vehicle depart="1739" id="300">
			<route edges="road_1_0_1 road_1_1_1"/>
		</vehicle>
		<vehicle depart="1740" id="301">
			<route edges="road_1_0_1 road_1_1_1"/>
		</vehicle>
		<vehicle depart="1741" id="302">
			<route edges="road_1_0_1 road_1_1_1"/>
		</vehicle>
		<vehicle depart="1741" id="303">
			<route edges="road_0_1_0 road_1_1_0"/>
		</vehicle>
		<vehicle depart="1744" id="304">
			<route edges="road_1_0_1 road_1_1_1"/>
		</vehicle>
		<vehicle depart="1747" id="305">
			<route edges="road_1_0_1 road_1_1_1"/>
		</vehicle>
		<vehicle depart="1747" id="306">
			<route edges="road_1_0_1 road_1_1_1"/>
		</vehicle>
		<vehicle depart="1747" id="307">
			<route edges="road_1_0_1 road_1_1_1"/>
		</vehicle>
		<vehicle depart="1749" id="308">
			<route edges="road_1_2_3 road_1_1_3"/>
		</vehicle>
		<vehicle depart="1759" id="309">
			<route edges="road_1_0_1 road_1_1_1"/>
		</vehicle>
		<vehicle depart="1761" id="310">
			<route edges="road_1_0_1 road_1_1_1"/>
		</vehicle>
		<vehicle depart="1761" id="311">
			<route edges="road_0_1_0 road_1_1_0"/>
		</vehicle>
		<vehicle depart="1768" id="312">
			<route edges="road_1_0_1 road_1_1_1"/>
		</vehicle>
		<vehicle depart="1768" id="313">
			<route edges="road_1_0_1 road_1_1_2"/>
		</vehicle>
		<vehicle depart="1773" id="314">
			<route edges="road_1_0_1 road_1_1_1"/>
		</vehicle>
		<vehicle depart="1773" id="315">
			<route edges="road_1_0_1 road_1_1_1"/>
		</vehicle>
		<vehicle depart="1776" id="316">
			<route edges="road_1_0_1 road_1_1_1"/>
		</vehicle>
		<vehicle depart="1778" id="317">
			<route edges="road_1_0_1 road_1_1_1"/>
		</vehicle>
		<vehicle depart="1778" id="318">
			<route edges="road_1_0_1 road_1_1_1"/>
		</vehicle>
		<vehicle depart="1792" id="319">
			<route edges="road_0_1_0 road_1_1_0"/>
		</vehicle>
		<vehicle depart="1794" id="320">
			<route edges="road_0_1_0 road_1_1_0"/>
		</vehicle>
		<vehicle depart="1810" id="321">
			<route edges="road_2_1_2 road_1_1_2"/>
		</vehicle>
		<vehicle depart="1811" id="322">
			<route edges="road_0_1_0 road_1_1_0"/>
		</vehicle>
		<vehicle depart="1813" id="323">
			<route edges="road_1_0_1 road_1_1_1"/>
		</vehicle>
		<vehicle depart="1817" id="324">
			<route edges="road_0_1_0 road_1_1_0"/>
		</vehicle>
		<vehicle depart="1823" id="325">
			<route edges="road_2_1_2 road_1_1_2"/>
		</vehicle>
		<vehicle depart="1828" id="326">
			<route edges="road_1_2_3 road_1_1_3"/>
		</vehicle>
		<vehicle depart="1828" id="327">
			<route edges="road_1_2_3 road_1_1_0"/>
		</vehicle>
		<vehicle depart="1834" id="328">
			<route edges="road_1_0_1 road_1_1_1"/>
		</vehicle>
		<vehicle depart="1836" id="329">
			<route edges="road_1_2_3 road_1_1_3"/>
		</vehicle>
		<vehicle depart="1836" id="330">
			<route edges="road_1_0_1 road_1_1_1"/>
		</vehicle>
		<vehicle depart="1839" id="331">
			<route edges="road_1_2_3 road_1_1_3"/>
		</vehicle>
		<vehicle depart="1843" id="332">
			<route edges="road_1_0_1 road_1_1_1"/>
		</vehicle>