<?xml version="1.0" encoding="utf-8"?>
	<edges xmlns:xsi="http://www.w3.org/2001/XMLSchema-instance" xsi:noNamespaceSchemaLocation="http://sumo.dlr.de/xsd/edges_file.xsd">
		<edge from="intersection_0_1" id="road_0_1_0" numLanes="2" priority="-1" speed="11.111" to="intersection_1_1"/>
		<edge from="intersection_1_0" id="road_1_0_1" numLanes="2" priority="-1" speed="11.111" to="intersection_1_1"/>
		<edge from="intersection_1_1" id="road_1_1_0" numLanes="2" priority="-1" speed="11.111" to="intersection_2_1"/>
		<edge from="intersection_1_1" id="road_1_1_1" numLanes="2" priority="-1" speed="11.111" to="intersection_1_2"/>
		<edge from="intersection_1_1" id="road_1_1_2" numLanes="2" priority="-1" speed="11.111" to="intersection_0_1"/>
		<edge from="intersection_1_1" id="road_1_1_3" numLanes="2" priority="-1" speed="11.111" to="intersection_1_0"/>
		<edge from="intersection_1_2" id="road_1_2_3" numLanes="2" priority="-1" speed="11.111" to="intersection_1_1"/>
		<edge from="intersection_2_1" id="road_2_1_2" numLanes="2" priority="-1" speed="11.111" to="intersection_1_1"/>
	</edges>
