<?xml version="1.0" encoding="utf-8"?>
<tlLogics version="1.1" xmlns:xsi="http://www.w3.org/2001/XMLSchema-instance" xsi:noNamespaceSchemaLocation="http://sumo.dlr.de/xsd/tllogic_file.xsd">
	<tlLogic id="69227168" offset="0" programID="0" type="static">
		<phase duration="25" state="GGGGGGGrrrrrrrGrrrrrrrGGGGGG"/>
		<phase duration="5" state="GGrrrrGrrrrrrrGrrrrrrrGGrrrr"/>
		<phase duration="15" state="GGrrrrGGGGGGGGGGGGGGGGGGrrrr"/>
		<phase duration="5" state="GGrrrrGrrrrrrrGrrrrrrrGGrrrr"/>
	</tlLogic>
	<tlLogic id="69249210" offset="0" programID="0" type="static">
		<phase duration="60" state="GGGGGGGGGGGGGGGGGGG"/>
		<phase duration="5" state="rrrrrrrGGrrrGrrrrrr"/>
	</tlLogic>
	<tlLogic id="69387071" offset="0" programID="0" type="static">
		<phase duration="10" state="GGGGGGGrrrrrrrGGGGGGGrrrrrrr"/>
		<phase duration="5" state="GGrrrrGrrrrrrrGGrrrrGrrrrrrr"/>
		<phase duration="10" state="GGrrrrGGGGGGGGGGrrrrGGGGGGGG"/>
		<phase duration="5" state="GGrrrrGrrrrrrrGGrrrrGrrrrrrr"/>
	</tlLogic>
	<tlLogic id="69421277" offset="0" programID="0" type="static">
		<phase duration="10" state="GGrrrrrrrGGrrrGGGGGGGrrrrrrGGrrGGGGG"/>
		<phase duration="5" state="GGrrrrrrrGGrrrrrrrGGGrrrrrrGGrrrrrrr"/>
		<phase duration="10" state="GGrrrrrrrGGGGGrrrrGGGrrrrrrGGGGrrrrr"/>
		<phase duration="5" state="GGrrrrrrrGGrrrrrrrGGGrrrrrrGGrrrrrrr"/>
		<phase duration="25" state="GGrrGGGGGGGrrrrrrrGGGrrGGGGGGrrrrrrr"/>
		<phase duration="5" state="GGrrrrrrrGGrrrrrrrGGGrrrrrrGGrrrrrrr"/>
		<phase duration="15" state="GGGGrrrrrGGrrrrrrrGGGGGrrrrGGrrrrrrr"/>
		<phase duration="5" state="GGrrrrrrrGGrrrrrrrGGGrrrrrrGGrrrrrrr"/>
	</tlLogic>
	<tlLogic id="69515842" offset="0" programID="0" type="static">
		<phase duration="10" state="GGrrrrrrGGrrGGGGGGrrrrrrGGrrGGGG"/>
		<phase duration="5" state="GGrrrrrrGGrrrrrrGGrrrrrrGGrrrrrr"/>
		<phase duration="10" state="GGrrrrrrGGGGrrrrGGrrrrrrGGGGrrrr"/>
		<phase duration="5" state="GGrrrrrrGGrrrrrrGGrrrrrrGGrrrrrr"/>
		<phase duration="25" state="GGrrGGGGGGrrrrrrGGrrGGGGGGrrrrrr"/>
		<phase duration="5" state="GGrrrrrrGGrrrrrrGGrrrrrrGGrrrrrr"/>
		<phase duration="15" state="GGGGrrrrGGrrrrrrGGGGrrrrGGrrrrrr"/>
		<phase duration="5" state="GGrrrrrrGGrrrrrrGGrrrrrrGGrrrrrr"/>
	</tlLogic>
</tlLogics>
