<?xml version="1.0" encoding="utf-8"?>
	<routes xmlns:xsi="http://www.w3.org/2001/XMLSchema-instance" xsi:noNamespaceSchemaLocation="http://sumo.dlr.de/xsd/routes_file.xsd">
		<vType accel="2.0" decel="4.5" id="pkw" length="5.0" maxSpeed="11.111" minGap="2.5" width="2.0"/>
		<vehicle depart="1" id="0">
			<route edges="-290405874#2 290405873#0"/>
		</vehicle>
		<vehicle depart="1" id="1">
			<route edges="-290405874#2 354587522#0 354587522#3 354587522#7 631653294#0 354587521#0"/>
		</vehicle>
		<vehicle depart="3" id="2">
			<route edges="-290405874#2 290405873#0"/>
		</vehicle>
		<vehicle depart="3" id="3">
			<route edges="-9247806#2 -354587522#2 -629278174#1"/>
		</vehicle>
		<vehicle depart="5" id="4">
			<route edges="-505912698#0 234013266#0 533146591"/>
		</vehicle>
		<vehicle depart="5" id="5">
			<route edges="290405872#0 354587522#0 354587522#3 354587522#7 631653294#0 354587521#0"/>
		</vehicle>
		<vehicle depart="6" id="6">
			<route edges="-290405874#2 290405873#0"/>
		</vehicle>
		<vehicle depart="7" id="7">
			<route edges="-505912698#0 234013266#0 533146591"/>
		</vehicle>
		<vehicle depart="8" id="8">
			<route edges="-290405874#2 290405873#0"/>
		</vehicle>
		<vehicle depart="8" id="9">
			<route edges="-505912698#0 234013266#0 533146591"/>
		</vehicle>
		<vehicle depart="8" id="10">
			<route edges="-533146591 -234013266#1 -631653295#2"/>
		</vehicle>
		<vehicle depart="8" id="11">
			<route edges="-533146591 -234013266#1 -631653295#2"/>
		</vehicle>
		<vehicle depart="8" id="12">
			<route edges="-533146591 -234013266#1 354587521#0"/>
		</vehicle>
		<vehicle depart="9" id="13">
			<route edges="-290405874#2 -629278174#1"/>
		</vehicle>
		<vehicle depart="9" id="14">
			<route edges="-9247806#2 -354587522#2 290405873#0"/>
		</vehicle>
		<vehicle depart="10" id="15">
			<route edges="-290405874#2 290405873#0"/>
		</vehicle>
		<vehicle depart="10" id="16">
			<route edges="-505912698#0 234013266#0 533146591"/>
		</vehicle>
		<vehicle depart="10" id="17">
			<route edges="-505912698#0 234013266#0 533146591"/>
		</vehicle>
		<vehicle depart="10" id="18">
			<route edges="-533146591 -234013266#1 -631653295#2"/>
		</vehicle>
		<vehicle depart="11" id="19">
			<route edges="-533146591 -234013266#1 -631653295#2"/>
		</vehicle>
		<vehicle depart="11" id="20">
			<route edges="290405872#0 354587522#0 354587522#3 354587522#7 -9246225#5"/>
		</vehicle>
		<vehicle depart="12" id="21">
			<route edges="-290405874#2 290405873#0"/>
		</vehicle>
		<vehicle depart="12" id="22">
			<route edges="-505912698#0 -631653294#2 -354587522#9 -354587522#6 -354587522#2 -629278174#1"/>
		</vehicle>
		<vehicle depart="12" id="23">
			<route edges="354587523 290405874#0"/>
		</vehicle>
		<vehicle depart="12" id="24">
			<route edges="9246225#4 198659569#0"/>
		</vehicle>
		<vehicle depart="13" id="25">
			<route edges="-290405874#2 290405873#0"/>
		</vehicle>
		<vehicle depart="13" id="26">
			<route edges="-505912698#0 234013266#0 533146591"/>
		</vehicle>
		<vehicle depart="13" id="27">
			<route edges="-505912698#0 234013266#0 533146591"/>
		</vehicle>
		<vehicle depart="13" id="28">
			<route edges="-533146591 -234013266#1 354587521#0"/>
		</vehicle>
		<vehicle depart="13" id="29">
			<route edges="-533146591 -234013266#1 -631653295#2"/>
		</vehicle>
		<vehicle depart="13" id="30">
			<route edges="-533146591 -234013266#1 -631653295#2"/>
		</vehicle>
		<vehicle depart="13" id="31">
			<route edges="-9247806#2 -354587522#2 290405873#0"/>
		</vehicle>
		<vehicle depart="13" id="32">
			<route edges="290405872#0 -629278174#1"/>
		</vehicle>
		<vehicle depart="13" id="33">
			<route edges="9258925#0 611582485#0"/>
		</vehicle>
		<vehicle depart="13" id="34">
			<route edges="9258925#0 611582485#0"/>
		</vehicle>
		<vehicle depart="14" id="35">
			<route edges="-290405874#2 -629278174#1"/>
		</vehicle>
		<vehicle depart="14" id="36">
			<route edges="-505912698#0 -631653294#2 198659569#0"/>
		</vehicle>
		<vehicle depart="14" id="37">
			<route edges="290405872#0 290405874#0"/>
		</vehicle>
		<vehicle depart="15" id="38">
			<route edges="-290405874#2 290405873#0"/>
		</vehicle>
		<vehicle depart="15" id="39">
			<route edges="-533146591 -234013266#1 -631653295#2"/>
		</vehicle>
		<vehicle depart="15" id="40">
			<route edges="-533146591 -234013266#1 -631653295#2"/>
		</vehicle>
		<vehicle depart="16" id="41">
			<route edges="-354587521#1 -631653294#2 -354587522#9 -354587522#6 -354587522#2 -629278174#1"/>
		</vehicle>
		<vehicle depart="16" id="42">
			<route edges="290405872#0 290405874#0"/>
		</vehicle>
		<vehicle depart="17" id="43">
			<route edges="-290405874#2 -629278174#1"/>
		</vehicle>
		<vehicle depart="17" id="44">
			<route edges="-533146591 -234013266#1 -631653295#2"/>
		</vehicle>
		<vehicle depart="18" id="45">
			<route edges="-354587521#1 -631653294#2 -354587522#9 -354587522#6 -354587522#2 -629278174#1"/>
		</vehicle>
		<vehicle depart="18" id="46">
			<route edges="-505912698#0 234013266#0 533146591"/>
		</vehicle>
		<vehicle depart="18" id="47">
			<route edges="290405872#0 290405874#0"/>
		</vehicle>
		<vehicle depart="19" id="48">
			<route edges="-533146591 -234013266#1 -631653295#2"/>
		</vehicle>
		<vehicle depart="19" id="49">
			<route edges="290405872#0 290405874#0"/>
		</vehicle>
		<vehicle depart="19" id="50">
			<route edges="9246225#4 631653294#0 -631653295#2"/>
		</vehicle>
		<vehicle depart="19" id="51">
			<route edges="9258925#0 354587522#7 631653294#0 -631653295#2"/>
		</vehicle>
		<vehicle depart="20" id="52">
			<route edges="290405872#0 -629278174#1"/>
		</vehicle>
		<vehicle depart="20" id="53">
			<route edges="290405872#0 290405874#0"/>
		</vehicle>
		<vehicle depart="20" id="54">
			<route edges="290405872#0 290405874#0"/>
		</vehicle>
		<vehicle depart="21" id="55">
			<route edges="-354587521#1 -631653295#2"/>
		</vehicle>
		<vehicle depart="21" id="56">
			<route edges="-533146591 -234013266#1 -631653295#2"/>
		</vehicle>
		<vehicle depart="21" id="57">
			<route edges="-533146591 -234013266#1 -631653295#2"/>
		</vehicle>
		<vehicle depart="21" id="58">
			<route edges="9246225#4 631653294#0 234013266#0 533146591"/>
		</vehicle>
		<vehicle depart="22" id="59">
			<route edges="-533146591 -234013266#1 -631653295#2"/>
		</vehicle>
		<vehicle depart="23" id="60">
			<route edges="-354587521#1 -631653294#2 -354587522#9 -354587522#6 -354587522#2 -629278174#1"/>
		</vehicle>
		<vehicle depart="23" id="61">
			<route edges="-354587521#1 -631653294#2 -354587522#9 -354587522#6 -354587522#2 -629278174#1"/>
		</vehicle>
		<vehicle depart="23" id="62">
			<route edges="-354587521#1 -631653294#2 -354587522#9 -354587522#6 9247806#0"/>
		</vehicle>
		<vehicle depart="23" id="63">
			<route edges="-354587521#1 -631653294#2 -354587522#9 -354587522#6 -354587522#2 -629278174#1"/>
		</vehicle>
		<vehicle depart="23" id="64">
			<route edges="-354587521#1 -631653294#2 -9246225#5"/>
		</vehicle>
		<vehicle depart="23" id="65">
			<route edges="-354587521#1 -631653294#2 -9246225#5"/>
		</vehicle>
		<vehicle depart="24" id="66">
			<route edges="290405872#0 -629278174#1"/>
		</vehicle>
		<vehicle depart="26" id="67">
			<route edges="-354587521#1 -631653295#2"/>
		</vehicle>
		<vehicle depart="26" id="68">
			<route edges="-533146591 -234013266#1 -631653295#2"/>
		</vehicle>
		<vehicle depart="26" id="69">
			<route edges="354587523 290405874#0"/>
		</vehicle>
		<vehicle depart="26" id="70">
			<route edges="9246225#4 631653294#0 -631653295#2"/>
		</vehicle>
		<vehicle depart="26" id="71">
			<route edges="9246225#4 631653294#0 234013266#0 533146591"/>
		</vehicle>
		<vehicle depart="27" id="72">
			<route edges="290405872#0 290405874#0"/>
		</vehicle>
		<vehicle depart="27" id="73">
			<route edges="290405872#0 -629278174#1"/>
		</vehicle>
		<vehicle depart="27" id="74">
			<route edges="354587523 354587522#0 354587522#3 354587522#7 631653294#0 354587521#0"/>
		</vehicle>
		<vehicle depart="27" id="75">
			<route edges="9246225#4 631653294#0 -631653295#2"/>
		</vehicle>
		<vehicle depart="28" id="76">
			<route edges="290405872#0 -629278174#1"/>
		</vehicle>
		<vehicle depart="29" id="77">
			<route edges="290405872#0 290405874#0"/>
		</vehicle>
		<vehicle depart="29" id="78">
			<route edges="9246225#4 631653294#0 354587521#0"/>
		</vehicle>
		<vehicle depart="30" id="79">
			<route edges="-533146591 -234013266#1 354587521#0"/>
		</vehicle>
		<vehicle depart="30" id="80">
			<route edges="354587523 290405874#0"/>
		</vehicle>
		<vehicle depart="31" id="81">
			<route edges="290405872#0 290405874#0"/>
		</vehicle>
		<vehicle depart="32" id="82">
			<route edges="-354587521#1 -631653294#2 -354587522#9 -354587522#6 -354587522#2 290405873#0"/>
		</vehicle>
		<vehicle depart="32" id="83">
			<route edges="-354587521#1 -631653294#2 -354587522#9 -354587522#6 -354587522#2 -629278174#1"/>
		</vehicle>
		<vehicle depart="32" id="84">
			<route edges="-533146591 -234013266#1 354587521#0"/>
		</vehicle>
		<vehicle depart="32" id="85">
			<route edges="-533146591 -234013266#1 -631653295#2"/>
		</vehicle>
		<vehicle depart="32" id="86">
			<route edges="354587523 290405874#0"/>
		</vehicle>
		<vehicle depart="33" id="87">
			<route edges="-354587521#1 234013266#0 533146591"/>
		</vehicle>
		<vehicle depart="33" id="88">
			<route edges="-505912698#0 234013266#0 533146591"/>
		</vehicle>
		<vehicle depart="33" id="89">
			<route edges="9246225#4 631653294#0 -631653295#2"/>
		</vehicle>
		<vehicle depart="34" id="90">
			<route edges="354587523 290405873#0"/>
		</vehicle>
		<vehicle depart="35" id="91">
			<route edges="354587523 290405874#0"/>
		</vehicle>
		<vehicle depart="36" id="92">
			<route edges="-290405874#2 -629278174#1"/>
		</vehicle>
		<vehicle depart="36" id="93">
			<route edges="-533146591 -234013266#1 -631653295#2"/>
		</vehicle>
		<vehicle depart="38" id="94">
			<route edges="354587523 290405874#0"/>
		</vehicle>
		<vehicle depart="41" id="95">
			<route edges="-354587521#1 -631653294#2 -354587522#9 -354587522#6 -354587522#2 -629278174#1"/>
		</vehicle>
		<vehicle depart="42" id="96">
			<route edges="-290405874#2 290405873#0"/>
		</vehicle>
		<vehicle depart="42" id="97">
			<route edges="-354587521#1 -631653294#2 -354587522#9 -354587522#6 -354587522#2 -629278174#1"/>
		</vehicle>
		<vehicle depart="42" id="98">
			<route edges="290405872#0 290405874#0"/>
		</vehicle>
		<vehicle depart="42" id="99">
			<route edges="354587523 354587522#0 354587522#3 354587522#7 631653294#0 354587521#0"/>
		</vehicle>
		<vehicle depart="44" id="100">
			<route edges="-290405874#2 290405873#0"/>
		</vehicle>
		<vehicle depart="44" id="101">
			<route edges="-290405874#2 -629278174#1"/>
		</vehicle>
		<vehicle depart="45" id="102">
			<route edges="-290405874#2 290405873#0"/>
		</vehicle>
		<vehicle depart="46" id="103">
			<route edges="-354587521#1 -631653294#2 -354587522#9 -354587522#6 -354587522#2 -629278174#1"/>
		</vehicle>
		<vehicle depart="46" id="104">
			<route edges="354587523 290405874#0"/>
		</vehicle>
		<vehicle depart="47" id="105">
			<route edges="-290405874#2 290405873#0"/>
		</vehicle>
		<vehicle depart="47" id="106">
			<route edges="-354587521#1 -631653294#2 -354587522#9 611582485#0"/>
		</vehicle>
		<vehicle depart="48" id="107">
			<route edges="9246225#4 198659569#0"/>
		</vehicle>
		<vehicle depart="49" id="108">
			<route edges="-290405874#2 290405873#0"/>
		</vehicle>
		<vehicle depart="49" id="109">
			<route edges="-354587521#1 -631653294#2 -354587522#9 -9258925#3"/>
		</vehicle>
		<vehicle depart="49" id="110">
			<route edges="-354587521#1 234013266#0 533146591"/>
		</vehicle>
		<vehicle depart="50" id="111">
			<route edges="-290405874#2 -629278174#1"/>
		</vehicle>
		<vehicle depart="50" id="112">
			<route edges="290405872#0 290405874#0"/>
		</vehicle>
		<vehicle depart="52" id="113">
			<route edges="-290405874#2 290405873#0"/>
		</vehicle>
		<vehicle depart="52" id="114">
			<route edges="-354587521#1 -631653294#2 -354587522#9 -354587522#6 9247806#0"/>
		</vehicle>
		<vehicle depart="52" id="115">
			<route edges="290405872#0 354587522#0 354587522#3 354587522#7 631653294#0 354587521#0"/>
		</vehicle>
		<vehicle depart="53" id="116">
			<route edges="354587523 290405873#0"/>
		</vehicle>
		<vehicle depart="55" id="117">
			<route edges="290405872#0 -629278174#1"/>
		</vehicle>
		<vehicle depart="56" id="118">
			<route edges="-354587521#1 -631653294#2 -354587522#9 -354587522#6 -354587522#2 -629278174#1"/>
		</vehicle>
		<vehicle depart="56" id="119">
			<route edges="-533146591 -234013266#1 354587521#0"/>
		</vehicle>
		<vehicle depart="56" id="120">
			<route edges="-9247806#2 354587522#3 354587522#7 631653294#0 354587521#0"/>
		</vehicle>
		<vehicle depart="56" id="121">
			<route edges="290405872#0 290405874#0"/>
		</vehicle>
		<vehicle depart="56" id="122">
			<route edges="290405872#0 354587522#0 354587522#3 354587522#7 631653294#0 354587521#0"/>
		</vehicle>
		<vehicle depart="57" id="123">
			<route edges="354587523 354587522#0 354587522#3 354587522#7 631653294#0 354587521#0"/>
		</vehicle>
		<vehicle depart="58" id="124">
			<route edges="-9247806#2 -354587522#2 -629278174#1"/>
		</vehicle>
		<vehicle depart="61" id="125">
			<route edges="-354587521#1 -631653294#2 -354587522#9 -354587522#6 -354587522#2 -629278174#1"/>
		</vehicle>
		<vehicle depart="61" id="126">
			<route edges="354587523 290405874#0"/>
		</vehicle>
		<vehicle depart="62" id="127">
			<route edges="-354587521#1 -631653294#2 -354587522#9 -354587522#6 -354587522#2 -629278174#1"/>
		</vehicle>
		<vehicle depart="62" id="128">
			<route edges="354587523 354587522#0 354587522#3 354587522#7 631653294#0 354587521#0"/>
		</vehicle>
		<vehicle depart="62" id="129">
			<route edges="354587523 354587522#0 354587522#3 354587522#7 631653294#0 -631653295#2"/>
		</vehicle>
		<vehicle depart="62" id="130">
			<route edges="354587523 290405873#0"/>
		</vehicle>
		<vehicle depart="64" id="131">
			<route edges="-354587521#1 -631653294#2 -9246225#5"/>
		</vehicle>
		<vehicle depart="65" id="132">
			<route edges="354587523 290405874#0"/>
		</vehicle>
		<vehicle depart="65" id="133">
			<route edges="354587523 354587522#0 354587522#3 354587522#7 631653294#0 354587521#0"/>
		</vehicle>
		<vehicle depart="66" id="134">
			<route edges="354587523 354587522#0 354587522#3 354587522#7 631653294#0 354587521#0"/>
		</vehicle>
		<vehicle depart="68" id="135">
			<route edges="-354587521#1 234013266#0 533146591"/>
		</vehicle>
		<vehicle depart="68" id="136">
			<route edges="354587523 354587522#0 354587522#3 354587522#7 631653294#0 234013266#0 533146591"/>
		</vehicle>
		<vehicle depart="70" id="137">
			<route edges="-354587521#1 -631653294#2 -354587522#9 -354587522#6 -354587522#2 -629278174#1"/>
		</vehicle>
		<vehicle depart="70" id="138">
			<route edges="-354587521#1 -631653295#2"/>
		</vehicle>
		<vehicle depart="70" id="139">
			<route edges="354587523 290405874#0"/>
		</vehicle>
		<vehicle depart="70" id="140">
			<route edges="354587523 290405874#0"/>
		</vehicle>
		<vehicle depart="71" id="141">
			<route edges="-354587521#1 -631653294#2 -354587522#9 -354587522#6 -354587522#2 -629278174#1"/>
		</vehicle>
		<vehicle depart="71" id="142">
			<route edges="-9247806#2 -354587522#2 -629278174#1"/>
		</vehicle>
		<vehicle depart="71" id="143">
			<route edges="9246225#4 631653294#0 354587521#0"/>
		</vehicle>
		<vehicle depart="71" id="144">
			<route edges="9258925#0 354587522#7 631653294#0 354587521#0"/>
		</vehicle>
		<vehicle depart="74" id="145">
			<route edges="-354587521#1 -631653294#2 -354587522#9 -354587522#6 -354587522#2 -629278174#1"/>
		</vehicle>
		<vehicle depart="74" id="146">
			<route edges="-533146591 -234013266#1 -631653294#2 -9246225#5"/>
		</vehicle>
		<vehicle depart="75" id="147">
			<route edges="354587523 354587522#0 354587522#3 354587522#7 631653294#0 354587521#0"/>
		</vehicle>
		<vehicle depart="75" id="148">
			<route edges="354587523 354587522#0 9247806#0"/>
		</vehicle>
		<vehicle depart="77" id="149">
			<route edges="-354587521#1 -631653294#2 -354587522#9 -354587522#6 -354587522#2 -629278174#1"/>
		</vehicle>
		<vehicle depart="77" id="150">
			<route edges="-533146591 -234013266#1 354587521#0"/>
		</vehicle>
		<vehicle depart="77" id="151">
			<route edges="354587523 354587522#0 354587522#3 354587522#7 631653294#0 -631653295#2"/>
		</vehicle>
		<vehicle depart="78" id="152">
			<route edges="290405872#0 290405874#0"/>
		</vehicle>
		<vehicle depart="79" id="153">
			<route edges="-533146591 -234013266#1 -631653294#2 -354587522#9 -354587522#6 -354587522#2 -629278174#1"/>
		</vehicle>
		<vehicle depart="80" id="154">
			<route edges="-354587521#1 -631653294#2 -354587522#9 -354587522#6 -354587522#2 -629278174#1"/>
		</vehicle>
		<vehicle depart="80" id="155">
			<route edges="-354587521#1 -631653294#2 -354587522#9 -354587522#6 -354587522#2 -629278174#1"/>
		</vehicle>
		<vehicle depart="81" id="156">
			<route edges="290405872#0 290405874#0"/>
		</vehicle>
		<vehicle depart="81" id="157">
			<route edges="354587523 -629278174#1"/>
		</vehicle>
		<vehicle depart="82" id="158">
			<route edges="354587523 354587522#0 354587522#3 354587522#7 631653294#0 354587521#0"/>
		</vehicle>
		<vehicle depart="83" id="159">
			<route edges="290405872#0 290405874#0"/>
		</vehicle>
		<vehicle depart="84" id="160">
			<route edges="-354587521#1 -631653294#2 -354587522#9 -354587522#6 -354587522#2 -629278174#1"/>
		</vehicle>
		<vehicle depart="84" id="161">
			<route edges="-533146591 -234013266#1 -631653295#2"/>
		</vehicle>
		<vehicle depart="85" id="162">
			<route edges="-533146591 -234013266#1 -631653295#2"/>
		</vehicle>
		<vehicle depart="85" id="163">
			<route edges="290405872#0 -629278174#1"/>
		</vehicle>
		<vehicle depart="86" id="164">
			<route edges="-354587521#1 -631653294#2 -354587522#9 -354587522#6 -354587522#2 290405873#0"/>
		</vehicle>
		<vehicle depart="86" id="165">
			<route edges="-354587521#1 -631653294#2 -354587522#9 -354587522#6 -354587522#2 -629278174#1"/>
		</vehicle>
		<vehicle depart="86" id="166">
			<route edges="290405872#0 290405874#0"/>
		</vehicle>
		<vehicle depart="86" id="167">
			<route edges="290405872#0 354587522#0 9247806#0"/>
		</vehicle>
		<vehicle depart="87" id="168">
			<route edges="-533146591 -234013266#1 -631653295#2"/>
		</vehicle>
		<vehicle depart="87" id="169">
			<route edges="290405872#0 -629278174#1"/>
		</vehicle>
		<vehicle depart="87" id="170">
			<route edges="354587523 290405873#0"/>
		</vehicle>
		<vehicle depart="88" id="171">
			<route edges="-505912698#0 234013266#0 533146591"/>
		</vehicle>
		<vehicle depart="88" id="172">
			<route edges="290405872#0 290405874#0"/>
		</vehicle>
		<vehicle depart="88" id="173">
			<route edges="354587523 354587522#0 354587522#3 354587522#7 631653294#0 354587521#0"/>
		</vehicle>
		<vehicle depart="89" id="174">
			<route edges="-290405874#2 290405873#0"/>
		</vehicle>
		<vehicle depart="89" id="175">
			<route edges="-290405874#2 -629278174#1"/>
		</vehicle>
		<vehicle depart="89" id="176">
			<route edges="290405872#0 -629278174#1"/>
		</vehicle>
		<vehicle depart="90" id="177">
			<route edges="-505912698#0 354587521#0"/>
		</vehicle>
		<vehicle depart="90" id="178">
			<route edges="-505912698#0 -631653294#2 -354587522#9 -354587522#6 -354587522#2 -629278174#1"/>
		</vehicle>
		<vehicle depart="90" id="179">
			<route edges="-533146591 -234013266#1 -631653295#2"/>
		</vehicle>
		<vehicle depart="90" id="180">
			<route edges="290405872#0 354587522#0 354587522#3 354587522#7 631653294#0 234013266#0 533146591"/>
		</vehicle>
		<vehicle depart="90" id="181">
			<route edges="354587523 354587522#0 354587522#3 354587522#7 631653294#0 354587521#0"/>
		</vehicle>
		<vehicle depart="91" id="182">
			<route edges="-354587521#1 -631653294#2 -354587522#9 -354587522#6 -354587522#2 -629278174#1"/>
		</vehicle>
		<vehicle depart="91" id="183">
			<route edges="-533146591 -234013266#1 -631653294#2 -354587522#9 -354587522#6 -354587522#2 -629278174#1"/>
		</vehicle>
		<vehicle depart="91" id="184">
			<route edges="290405872#0 290405874#0"/>
		</vehicle>
		<vehicle depart="91" id="185">
			<route edges="354587523 354587522#0 354587522#3 354587522#7 631653294#0 354587521#0"/>
		</vehicle>
		<vehicle depart="92" id="186">
			<route edges="-290405874#2 290405873#0"/>
		</vehicle>
		<vehicle depart="92" id="187">
			<route edges="-290405874#2 -629278174#1"/>
		</vehicle>
		<vehicle depart="92" id="188">
			<route edges="-505912698#0 234013266#0 533146591"/>
		</vehicle>
		<vehicle depart="92" id="189">
			<route edges="354587523 354587522#0 354587522#3 354587522#7 631653294#0 -631653295#2"/>
		</vehicle>
		<vehicle depart="93" id="190">
			<route edges="-290405874#2 354587522#0 354587522#3 -9258925#3"/>
		</vehicle>
		<vehicle depart="93" id="191">
			<route edges="-505912698#0 354587521#0"/>
		</vehicle>
		<vehicle depart="93" id="192">
			<route edges="290405872#0 354587522#0 354587522#3 354587522#7 631653294#0 354587521#0"/>
		</vehicle>
		<vehicle depart="93" id="193">
			<route edges="9246225#4 631653294#0 354587521#0"/>
		</vehicle>
		<vehicle depart="94" id="194">
			<route edges="-290405874#2 290405873#0"/>
		</vehicle>
		<vehicle depart="94" id="195">
			<route edges="-505912698#0 354587521#0"/>
		</vehicle>
		<vehicle depart="94" id="196">
			<route edges="-505912698#0 234013266#0 533146591"/>
		</vehicle>
		<vehicle depart="94" id="197">
			<route edges="354587523 354587522#0 354587522#3 354587522#7 631653294#0 234013266#0 533146591"/>
		</vehicle>
		<vehicle depart="94" id="198">
			<route edges="9258925#0 -354587522#6 -354587522#2 290405873#0"/>
		</vehicle>
		<vehicle depart="95" id="199">
			<route edges="-290405874#2 -629278174#1"/>
		</vehicle>
		<vehicle depart="95" id="200">
			<route edges="-354587521#1 -631653294#2 -354587522#9 -354587522#6 -354587522#2 -629278174#1"/>
		</vehicle>
		<vehicle depart="95" id="201">
			<route edges="-505912698#0 234013266#0 533146591"/>
		</vehicle>
		<vehicle depart="95" id="202">
			<route edges="-533146591 -234013266#1 -631653294#2 -354587522#9 -354587522#6 -354587522#2 290405874#0"/>
		</vehicle>
		<vehicle depart="96" id="203">
			<route edges="-505912698#0 354587521#0"/>
		</vehicle>
		<vehicle depart="96" id="204">
			<route edges="-505912698#0 -631653294#2 -9246225#5"/>
		</vehicle>
		<vehicle depart="96" id="205">
			<route edges="-9247806#2 -354587522#2 -629278174#1"/>
		</vehicle>
		<vehicle depart="96" id="206">
			<route edges="290405872#0 290405874#0"/>
		</vehicle>
		<vehicle depart="97" id="207">
			<route edges="-290405874#2 290405873#0"/>
		</vehicle>
		<vehicle depart="98" id="208">
			<route edges="290405872#0 290405874#0"/>
		</vehicle>
		<vehicle depart="99" id="209">
			<route edges="-198659569#3 -9246225#5"/>
		</vehicle>
		<vehicle depart="99" id="210">
			<route edges="-505912698#0 -631653294#2 -354587522#9 -354587522#6 -354587522#2 -629278174#1"/>
		</vehicle>
		<vehicle depart="100" id="211">
			<route edges="-505912698#0 234013266#0 533146591"/>
		</vehicle>
		<vehicle depart="100" id="212">
			<route edges="-533146591 -234013266#1 -631653295#2"/>
		</vehicle>
		<vehicle depart="100" id="213">
			<route edges="9258925#0 611582485#0"/>
		</vehicle>
		<vehicle depart="101" id="214">
			<route edges="-505912698#0 234013266#0 533146591"/>
		</vehicle>
		<vehicle depart="101" id="215">
			<route edges="-505912698#0 -631653295#2"/>
		</vehicle>
		<vehicle depart="101" id="216">
			<route edges="-533146591 -234013266#1 -631653295#2"/>
		</vehicle>
		<vehicle depart="101" id="217">
			<route edges="290405872#0 290405874#0"/>
		</vehicle>
		<vehicle depart="101" id="218">
			<route edges="354587523 354587522#0 354587522#3 354587522#7 631653294#0 354587521#0"/>
		</vehicle>
		<vehicle depart="102" id="219">
			<route edges="-198659569#3 -9246225#5"/>
		</vehicle>
		<vehicle depart="102" id="220">
			<route edges="-505912698#0 234013266#0 533146591"/>
		</vehicle>
		<vehicle depart="102" id="221">
			<route edges="-505912698#0 -631653294#2 -354587522#9 -354587522#6 -354587522#2 -629278174#1"/>
		</vehicle>
		<vehicle depart="102" id="222">
			<route edges="-533146591 -234013266#1 -631653295#2"/>
		</vehicle>
		<vehicle depart="102" id="223">
			<route edges="-533146591 -234013266#1 -631653295#2"/>
		</vehicle>
		<vehicle depart="102" id="224">
			<route edges="9258925#0 611582485#0"/>
		</vehicle>
		<vehicle depart="103" id="225">
			<route edges="-290405874#2 354587522#0 354587522#3 354587522#7 631653294#0 234013266#0 533146591"/>
		</vehicle>
		<vehicle depart="103" id="226">
			<route edges="-505912698#0 234013266#0 533146591"/>
		</vehicle>
		<vehicle depart="103" id="227">
			<route edges="-533146591 -234013266#1 -631653295#2"/>
		</vehicle>
		<vehicle depart="103" id="228">
			<route edges="-533146591 -234013266#1 354587521#0"/>
		</vehicle>
		<vehicle depart="103" id="229">
			<route edges="-533146591 -234013266#1 354587521#0"/>
		</vehicle>
		<vehicle depart="103" id="230">
			<route edges="290405872#0 -629278174#1"/>
		</vehicle>
		<vehicle depart="104" id="231">
			<route edges="-505912698#0 234013266#0 533146591"/>
		</vehicle>
		<vehicle depart="104" id="232">
			<route edges="290405872#0 290405874#0"/>
		</vehicle>
		<vehicle depart="105" id="233">
			<route edges="-505912698#0 234013266#0 533146591"/>
		</vehicle>
		<vehicle depart="105" id="234">
			<route edges="-505912698#0 234013266#0 533146591"/>
		</vehicle>
		<vehicle depart="105" id="235">
			<route edges="-505912698#0 234013266#0 533146591"/>
		</vehicle>
		<vehicle depart="105" id="236">
			<route edges="-533146591 -234013266#1 -631653295#2"/>
		</vehicle>
		<vehicle depart="105" id="237">
			<route edges="-533146591 -234013266#1 -631653295#2"/>
		</vehicle>
		<vehicle depart="105" id="238">
			<route edges="-533146591 -234013266#1 -631653295#2"/>
		</vehicle>
		<vehicle depart="105" id="239">
			<route edges="9246225#4 631653294#0 -631653295#2"/>
		</vehicle>
		<vehicle depart="106" id="240">
			<route edges="354587523 354587522#0 354587522#3 354587522#7 631653294#0 354587521#0"/>
		</vehicle>
		<vehicle depart="107" id="241">
			<route edges="-533146591 -234013266#1 -631653295#2"/>
		</vehicle>
		<vehicle depart="108" id="242">
			<route edges="-290405874#2 290405873#0"/>
		</vehicle>
		<vehicle depart="108" id="243">
			<route edges="-505912698#0 234013266#0 533146591"/>
		</vehicle>
		<vehicle depart="108" id="244">
			<route edges="-505912698#0 -631653294#2 -354587522#9 -354587522#6 -354587522#2 -629278174#1"/>
		</vehicle>
		<vehicle depart="108" id="245">
			<route edges="-533146591 -234013266#1 -631653295#2"/>
		</vehicle>
		<vehicle depart="108" id="246">
			<route edges="290405872#0 354587522#0 354587522#3 354587522#7 631653294#0 354587521#0"/>
		</vehicle>
		<vehicle depart="108" id="247">
			<route edges="354587523 354587522#0 9247806#0"/>
		</vehicle>
		<vehicle depart="109" id="248">
			<route edges="-505912698#0 234013266#0 533146591"/>
		</vehicle>
		<vehicle depart="109" id="249">
			<route edges="354587523 354587522#0 354587522#3 354587522#7 631653294#0 354587521#0"/>
		</vehicle>
		<vehicle depart="110" id="250">
			<route edges="-505912698#0 -631653295#2"/>
		</vehicle>
		<vehicle depart="110" id="251">
			<route edges="-505912698#0 234013266#0 533146591"/>
		</vehicle>
		<vehicle depart="110" id="252">
			<route edges="-533146591 -234013266#1 -631653295#2"/>
		</vehicle>
		<vehicle depart="110" id="253">
			<route edges="290405872#0 290405874#0"/>
		</vehicle>
		<vehicle depart="110" id="254">
			<route edges="354587523 290405874#0"/>
		</vehicle>
		<vehicle depart="110" id="255">
			<route edges="9246225#4 631653294#0 -631653295#2"/>
		</vehicle>
		<vehicle depart="111" id="256">
			<route edges="-505912698#0 354587521#0"/>
		</vehicle>
		<vehicle depart="111" id="257">
			<route edges="-505912698#0 -631653294#2 -354587522#9 -354587522#6 -354587522#2 -629278174#1"/>
		</vehicle>
		<vehicle depart="111" id="258">
			<route edges="-505912698#0 234013266#0 533146591"/>
		</vehicle>
		<vehicle depart="112" id="259">
			<route edges="-198659569#3 -9246225#5"/>
		</vehicle>
		<vehicle depart="112" id="260">
			<route edges="-505912698#0 234013266#0 533146591"/>
		</vehicle>
		<vehicle depart="112" id="261">
			<route edges="-533146591 -234013266#1 -631653295#2"/>
		</vehicle>
		<vehicle depart="112" id="262">
			<route edges="290405872#0 -629278174#1"/>
		</vehicle>
		<vehicle depart="112" id="263">
			<route edges="290405872#0 290405874#0"/>
		</vehicle>
		<vehicle depart="112" id="264">
			<route edges="354587523 290405874#0"/>
		</vehicle>
		<vehicle depart="113" id="265">
			<route edges="-505912698#0 234013266#0 533146591"/>
		</vehicle>
		<vehicle depart="113" id="266">
			<route edges="-533146591 -234013266#1 -631653295#2"/>
		</vehicle>
		<vehicle depart="114" id="267">
			<route edges="-533146591 -234013266#1 -631653295#2"/>
		</vehicle>
		<vehicle depart="115" id="268">
			<route edges="-505912698#0 234013266#0 533146591"/>
		</vehicle>
		<vehicle depart="115" id="269">
			<route edges="-533146591 -234013266#1 -631653294#2 -354587522#9 -354587522#6 -354587522#2 -629278174#1"/>
		</vehicle>
		<vehicle depart="115" id="270">
			<route edges="290405872#0 290405874#0"/>
		</vehicle>
		<vehicle depart="117" id="271">
			<route edges="-505912698#0 234013266#0 533146591"/>
		</vehicle>
		<vehicle depart="117" id="272">
			<route edges="290405872#0 290405874#0"/>
		</vehicle>
		<vehicle depart="118" id="273">
			<route edges="-505912698#0 234013266#0 533146591"/>
		</vehicle>
		<vehicle depart="118" id="274">
			<route edges="290405872#0 -629278174#1"/>
		</vehicle>
		<vehicle depart="119" id="275">
			<route edges="290405872#0 290405874#0"/>
		</vehicle>
		<vehicle depart="120" id="276">
			<route edges="290405872#0 -629278174#1"/>
		</vehicle>
		<vehicle depart="120" id="277">
			<route edges="9258925#0 611582485#0"/>
		</vehicle>
		<vehicle depart="121" id="278">