<?xml version="1.0" encoding="utf-8"?>
<connections version="1.1" xmlns:xsi="http://www.w3.org/2001/XMLSchema-instance" xsi:noNamespaceSchemaLocation="http://sumo.dlr.de/xsd/connections_file.xsd">
	<connection from="-629278174#1" fromLane="1" to="354587523" toLane="1"/>
	<connection from="-629278174#1" fromLane="1" to="354587523" toLane="0"/>
	<connection from="290405874#0" fromLane="2" to="-290405874#2" toLane="1"/>
	<connection from="290405874#0" fromLane="2" to="-290405874#2" toLane="0"/>
	<connection from="-9246225#5" fromLane="0" to="9246225#4" toLane="0"/>
	<connection from="-198659569#3" fromLane="0" to="-354587522#9" toLane="1"/>
	<connection from="-198659569#3" fromLane="0" to="-354587522#9" toLane="0"/>
	<connection from="-198659569#3" fromLane="0" to="-9246225#5" toLane="0"/>
	<connection from="-198659569#3" fromLane="0" to="631653294#0" toLane="1"/>
	<connection from="-198659569#3" fromLane="0" to="631653294#0" toLane="0"/>
	<connection from="-198659569#3" fromLane="0" to="198659569#0" toLane="0"/>
	<connection from="-631653294#2" fromLane="0" to="198659569#0" toLane="0"/>
	<connection from="-631653294#2" fromLane="1" to="-354587522#9" toLane="1"/>
	<connection from="-631653294#2" fromLane="1" to="-354587522#9" toLane="0"/>
	<connection from="-631653294#2" fromLane="0" to="-354587522#9" toLane="1"/>
	<connection from="-631653294#2" fromLane="0" to="-354587522#9" toLane="0"/>
	<connection from="-631653294#2" fromLane="1" to="-9246225#5" toLane="0"/>
	<connection from="-631653294#2" fromLane="1" to="631653294#0" toLane="1"/>
	<connection from="-631653294#2" fromLane="1" to="631653294#0" toLane="0"/>
	<connection from="354587522#7" fromLane="0" to="-9246225#5" toLane="0"/>
	<connection from="354587522#7" fromLane="1" to="631653294#0" toLane="1"/>
	<connection from="354587522#7" fromLane="1" to="631653294#0" toLane="0"/>
	<connection from="354587522#7" fromLane="0" to="631653294#0" toLane="1"/>
	<connection from="354587522#7" fromLane="0" to="631653294#0" toLane="0"/>
	<connection from="354587522#7" fromLane="1" to="198659569#0" toLane="0"/>
	<connection from="354587522#7" fromLane="1" to="-354587522#9" toLane="1"/>
	<connection from="354587522#7" fromLane="1" to="-354587522#9" toLane="0"/>
	<connection from="9246225#4" fromLane="0" to="631653294#0" toLane="1"/>
	<connection from="9246225#4" fromLane="0" to="631653294#0" toLane="0"/>
	<connection from="9246225#4" fromLane="0" to="198659569#0" toLane="0"/>
	<connection from="9246225#4" fromLane="0" to="-354587522#9" toLane="1"/>
	<connection from="9246225#4" fromLane="0" to="-354587522#9" toLane="0"/>
	<connection from="9246225#4" fromLane="0" to="-9246225#5" toLane="0"/>
	<connection from="198659569#0" fromLane="0" to="-198659569#3" toLane="0"/>
	<connection from="-354587522#6" fromLane="0" to="9247806#0" toLane="0"/>
	<connection from="-354587522#6" fromLane="1" to="-354587522#2" toLane="1"/>
	<connection from="-354587522#6" fromLane="1" to="-354587522#2" toLane="0"/>
	<connection from="-354587522#6" fromLane="0" to="-354587522#2" toLane="1"/>
	<connection from="-354587522#6" fromLane="0" to="-354587522#2" toLane="0"/>
	<connection from="-354587522#6" fromLane="1" to="354587522#3" toLane="1"/>
	<connection from="-354587522#6" fromLane="1" to="354587522#3" toLane="0"/>
	<connection from="-9247806#2" fromLane="0" to="-354587522#2" toLane="1"/>
	<connection from="-9247806#2" fromLane="0" to="-354587522#2" toLane="0"/>
	<connection from="-9247806#2" fromLane="0" to="354587522#3" toLane="1"/>
	<connection from="-9247806#2" fromLane="0" to="354587522#3" toLane="0"/>
	<connection from="-9247806#2" fromLane="0" to="9247806#0" toLane="0"/>
	<connection from="354587522#0" fromLane="1" to="354587522#3" toLane="1"/>
	<connection from="354587522#0" fromLane="1" to="354587522#3" toLane="0"/>
	<connection from="354587522#0" fromLane="0" to="354587522#3" toLane="1"/>
	<connection from="354587522#0" fromLane="0" to="354587522#3" toLane="0"/>
	<connection from="354587522#0" fromLane="1" to="9247806#0" toLane="0"/>
	<connection from="354587522#0" fromLane="1" to="-354587522#2" toLane="1"/>
	<connection from="354587522#0" fromLane="1" to="-354587522#2" toLane="0"/>
	<connection from="9247806#0" fromLane="0" to="-9247806#2" toLane="0"/>
	<connection from="-9258925#3" fromLane="0" to="9258925#0" toLane="0"/>
	<connection from="-354587522#9" fromLane="0" to="611582485#0" toLane="0"/>
	<connection from="-354587522#9" fromLane="1" to="-354587522#6" toLane="1"/>
	<connection from="-354587522#9" fromLane="1" to="-354587522#6" toLane="0"/>
	<connection from="-354587522#9" fromLane="0" to="-354587522#6" toLane="1"/>
	<connection from="-354587522#9" fromLane="0" to="-354587522#6" toLane="0"/>
	<connection from="-354587522#9" fromLane="1" to="-9258925#3" toLane="0"/>
	<connection from="-354587522#9" fromLane="1" to="354587522#7" toLane="1"/>
	<connection from="-354587522#9" fromLane="1" to="354587522#7" toLane="0"/>
	<connection from="-611582485#3" fromLane="0" to="-354587522#6" toLane="1"/>
	<connection from="-611582485#3" fromLane="0" to="-354587522#6" toLane="0"/>
	<connection from="-611582485#3" fromLane="0" to="-9258925#3" toLane="0"/>
	<connection from="-611582485#3" fromLane="0" to="354587522#7" toLane="1"/>
	<connection from="-611582485#3" fromLane="0" to="354587522#7" toLane="0"/>
	<connection from="-611582485#3" fromLane="0" to="611582485#0" toLane="0"/>
	<connection from="354587522#3" fromLane="0" to="-9258925#3" toLane="0"/>
	<connection from="354587522#3" fromLane="1" to="354587522#7" toLane="1"/>
	<connection from="354587522#3" fromLane="1" to="354587522#7" toLane="0"/>
	<connection from="354587522#3" fromLane="0" to="354587522#7" toLane="1"/>
	<connection from="354587522#3" fromLane="0" to="354587522#7" toLane="0"/>
	<connection from="354587522#3" fromLane="1" to="611582485#0" toLane="0"/>
	<connection from="354587522#3" fromLane="1" to="-354587522#6" toLane="1"/>
	<connection from="354587522#3" fromLane="1" to="-354587522#6" toLane="0"/>
	<connection from="9258925#0" fromLane="0" to="354587522#7" toLane="1"/>
	<connection from="9258925#0" fromLane="0" to="354587522#7" toLane="0"/>
	<connection from="9258925#0" fromLane="0" to="611582485#0" toLane="0"/>
	<connection from="9258925#0" fromLane="0" to="-354587522#6" toLane="1"/>
	<connection from="9258925#0" fromLane="0" to="-354587522#6" toLane="0"/>
	<connection from="9258925#0" fromLane="0" to="-9258925#3" toLane="0"/>
	<connection from="611582485#0" fromLane="0" to="-611582485#3" toLane="0"/>
	<connection from="290405873#0" fromLane="1" to="290405872#0" toLane="1"/>
	<connection from="290405873#0" fromLane="1" to="290405872#0" toLane="0"/>
	<connection from="-290405874#2" fromLane="0" to="-629278174#1" toLane="1"/>
	<connection from="-290405874#2" fromLane="0" to="-629278174#1" toLane="0"/>
	<connection from="-290405874#2" fromLane="0" to="290405873#0" toLane="1"/>
	<connection from="-290405874#2" fromLane="0" to="290405873#0" toLane="0"/>
	<connection from="-290405874#2" fromLane="1" to="354587522#0" toLane="1"/>
	<connection from="-290405874#2" fromLane="1" to="354587522#0" toLane="0"/>
	<connection from="-290405874#2" fromLane="1" to="290405874#0" toLane="2"/>
	<connection from="-290405874#2" fromLane="1" to="290405874#0" toLane="1"/>
	<connection from="-290405874#2" fromLane="1" to="290405874#0" toLane="0"/>
	<connection from="-354587522#2" fromLane="0" to="290405874#0" toLane="2"/>
	<connection from="-354587522#2" fromLane="0" to="290405874#0" toLane="1"/>
	<connection from="-354587522#2" fromLane="0" to="290405874#0" toLane="0"/>
	<connection from="-354587522#2" fromLane="0" to="-629278174#1" toLane="1"/>
	<connection from="-354587522#2" fromLane="0" to="-629278174#1" toLane="0"/>
	<connection from="-354587522#2" fromLane="1" to="290405873#0" toLane="1"/>
	<connection from="-354587522#2" fromLane="1" to="290405873#0" toLane="0"/>
	<connection from="-354587522#2" fromLane="1" to="354587522#0" toLane="1"/>
	<connection from="-354587522#2" fromLane="1" to="354587522#0" toLane="0"/>
	<connection from="290405872#0" fromLane="0" to="354587522#0" toLane="1"/>
	<connection from="290405872#0" fromLane="0" to="354587522#0" toLane="0"/>
	<connection from="290405872#0" fromLane="0" to="290405874#0" toLane="2"/>
	<connection from="290405872#0" fromLane="0" to="290405874#0" toLane="1"/>
	<connection from="290405872#0" fromLane="0" to="290405874#0" toLane="0"/>
	<connection from="290405872#0" fromLane="1" to="-629278174#1" toLane="1"/>
	<connection from="290405872#0" fromLane="1" to="-629278174#1" toLane="0"/>
	<connection from="290405872#0" fromLane="1" to="290405873#0" toLane="1"/>
	<connection from="290405872#0" fromLane="1" to="290405873#0" toLane="0"/>
	<connection from="354587523" fromLane="0" to="290405873#0" toLane="1"/>
	<connection from="354587523" fromLane="0" to="290405873#0" toLane="0"/>
	<connection from="354587523" fromLane="0" to="354587522#0" toLane="1"/>
	<connection from="354587523" fromLane="0" to="354587522#0" toLane="0"/>
	<connection from="354587523" fromLane="1" to="290405874#0" toLane="2"/>
	<connection from="354587523" fromLane="1" to="290405874#0" toLane="1"/>
	<connection from="354587523" fromLane="1" to="290405874#0" toLane="0"/>
	<connection from="354587523" fromLane="1" to="-629278174#1" toLane="1"/>
	<connection from="354587523" fromLane="1" to="-629278174#1" toLane="0"/>
	<connection from="354587521#0" fromLane="1" to="-354587521#1" toLane="1"/>
	<connection from="354587521#0" fromLane="1" to="-354587521#1" toLane="0"/>
	<connection from="-234013266#1" fromLane="0" to="354587521#0" toLane="1"/>
	<connection from="-234013266#1" fromLane="0" to="354587521#0" toLane="0"/>
	<connection from="-234013266#1" fromLane="0" to="-631653295#2" toLane="1"/>
	<connection from="-234013266#1" fromLane="0" to="-631653295#2" toLane="0"/>
	<connection from="-234013266#1" fromLane="1" to="-631653294#2" toLane="1"/>
	<connection from="-234013266#1" fromLane="1" to="-631653294#2" toLane="0"/>
	<connection from="-234013266#1" fromLane="1" to="234013266#0" toLane="1"/>
	<connection from="-234013266#1" fromLane="1" to="234013266#0" toLane="0"/>
	<connection from="-354587521#1" fromLane="0" to="-631653295#2" toLane="1"/>
	<connection from="-354587521#1" fromLane="0" to="-631653295#2" toLane="0"/>
	<connection from="-354587521#1" fromLane="0" to="-631653294#2" toLane="1"/>
	<connection from="-354587521#1" fromLane="0" to="-631653294#2" toLane="0"/>
	<connection from="-354587521#1" fromLane="1" to="234013266#0" toLane="1"/>
	<connection from="-354587521#1" fromLane="1" to="234013266#0" toLane="0"/>
	<connection from="-354587521#1" fromLane="1" to="354587521#0" toLane="1"/>
	<connection from="-354587521#1" fromLane="1" to="354587521#0" toLane="0"/>
	<connection from="-505912698#0" fromLane="0" to="-631653294#2" toLane="1"/>
	<connection from="-505912698#0" fromLane="0" to="-631653294#2" toLane="0"/>
	<connection from="-505912698#0" fromLane="0" to="234013266#0" toLane="1"/>
	<connection from="-505912698#0" fromLane="0" to="234013266#0" toLane="0"/>
	<connection from="-505912698#0" fromLane="1" to="354587521#0" toLane="1"/>
	<connection from="-505912698#0" fromLane="1" to="354587521#0" toLane="0"/>
	<connection from="-505912698#0" fromLane="1" to="-631653295#2" toLane="1"/>
	<connection from="-505912698#0" fromLane="1" to="-631653295#2" toLane="0"/>
	<connection from="631653294#0" fromLane="0" to="234013266#0" toLane="1"/>
	<connection from="631653294#0" fromLane="0" to="234013266#0" toLane="0"/>
	<connection from="631653294#0" fromLane="0" to="354587521#0" toLane="1"/>
	<connection from="631653294#0" fromLane="0" to="354587521#0" toLane="0"/>
	<connection from="631653294#0" fromLane="1" to="-631653295#2" toLane="1"/>
	<connection from="631653294#0" fromLane="1" to="-631653295#2" toLane="0"/>
	<connection from="631653294#0" fromLane="1" to="-631653294#2" toLane="1"/>
	<connection from="631653294#0" fromLane="1" to="-631653294#2" toLane="0"/>
	<connection from="-533146591" fromLane="1" to="-234013266#1" toLane="1"/>
	<connection from="-533146591" fromLane="1" to="-234013266#1" toLane="0"/>
	<connection from="-533146591" fromLane="0" to="-234013266#1" toLane="1"/>
	<connection from="-533146591" fromLane="0" to="-234013266#1" toLane="0"/>
	<connection from="-533146591" fromLane="1" to="533146591" toLane="1"/>
	<connection from="-533146591" fromLane="1" to="533146591" toLane="0"/>
	<connection from="234013266#0" fromLane="1" to="533146591" toLane="1"/>
	<connection from="234013266#0" fromLane="1" to="533146591" toLane="0"/>
	<connection from="234013266#0" fromLane="0" to="533146591" toLane="1"/>
	<connection from="234013266#0" fromLane="0" to="533146591" toLane="0"/>
	<connection from="234013266#0" fromLane="1" to="-234013266#1" toLane="1"/>
	<connection from="234013266#0" fromLane="1" to="-234013266#1" toLane="0"/>
	<connection from="-631653295#2" fromLane="1" to="-505912698#0" toLane="1"/>
	<connection from="-631653295#2" fromLane="1" to="-505912698#0" toLane="0"/>
	<connection from="533146591" fromLane="1" to="-533146591" toLane="1"/>
	<connection from="533146591" fromLane="1" to="-533146591" toLane="0"/>
</connections>
