<?xml version="1.0" encoding="UTF-8"?>

<!-- generated on 2022-06-28 16:46:06 by Eclipse SUMO netconvert Version 1.13.0
<configuration xmlns:xsi="http://www.w3.org/2001/XMLSchema-instance" xsi:noNamespaceSchemaLocation="http://sumo.dlr.de/xsd/netconvertConfiguration.xsd">

    <input>
        <node-files value="/home/lxl/TSCtest/LibSignalSpare_new/LibSignal_wei/data/raw_data/atlanta_1x5/atlanta_1x5.nod.xml"/>
        <edge-files value="/home/lxl/TSCtest/LibSignalSpare_new/LibSignal_wei/data/raw_data/atlanta_1x5/atlanta_1x5.edg.xml"/>
        <connection-files value="/home/lxl/TSCtest/LibSignalSpare_new/LibSignal_wei/data/raw_data/atlanta_1x5/atlanta_1x5.con.xml"/>
        <tllogic-files value="/home/lxl/TSCtest/LibSignalSpare_new/LibSignal_wei/data/raw_data/atlanta_1x5/atlanta_1x5.tll.xml"/>
    </input>

    <output>
        <output-file value="/home/lxl/TSCtest/LibSignalSpare_new/LibSignal_wei/data/raw_data/atlanta_1x5/atlanta_1x5.net.xml"/>
    </output>

    <report>
        <aggregate-warnings value="5"/>
    </report>

</configuration>
-->

<net version="1.9" junctionCornerDetail="5" limitTurnSpeed="5.50" xmlns:xsi="http://www.w3.org/2001/XMLSchema-instance" xsi:noNamespaceSchemaLocation="http://sumo.dlr.de/xsd/net_file.xsd">

    <location netOffset="-179.37,-809.91" convBoundary="0.00,0.00,338.73,899.76" origBoundary="179.37,809.91,518.10,1709.67" projParameter="!"/>

    <edge id=":2390850312_0" function="internal">
        <lane id=":2390850312_0_0" index="0" speed="4.72" length="7.01" shape="210.59,900.24 208.35,902.05 206.58,902.34 205.29,901.10 204.48,898.33"/>
        <lane id=":2390850312_0_1" index="1" speed="3.65" length="7.01" shape="210.59,900.24 209.47,901.14 208.58,901.29 207.94,900.67 207.53,899.28"/>
    </edge>
    <edge id=":5198748651_0" function="internal">
        <lane id=":5198748651_0_0" index="0" speed="4.72" length="7.01" shape="336.60,777.13 339.10,778.57 340.01,780.11 339.32,781.76 337.03,783.52"/>
        <lane id=":5198748651_0_1" index="1" speed="3.65" length="7.01" shape="336.60,777.13 337.85,777.85 338.31,778.62 337.96,779.45 336.82,780.33"/>
    </edge>
    <edge id=":69227161_0" function="internal">
        <lane id=":69227161_0_0" index="0" speed="3.65" length="4.67" shape="115.42,414.18 114.19,413.42 113.76,412.64 114.13,411.82 115.30,410.98"/>
    </edge>
    <edge id=":69227168_0" function="internal">
        <lane id=":69227168_0_0" index="0" speed="10.02" length="14.86" shape="190.58,421.00 188.04,416.97 185.37,414.12 182.59,412.45 179.68,411.96"/>
    </edge>
    <edge id=":69227168_1" function="internal">
        <lane id=":69227168_1_0" index="0" speed="11.11" length="18.89" shape="190.58,421.00 187.86,415.94 186.24,412.29 185.36,408.44 184.84,402.74"/>
        <lane id=":69227168_1_1" index="1" speed="11.11" length="18.89" shape="190.58,421.00 188.41,415.96 187.88,412.18 188.07,408.19 188.04,402.54"/>
        <lane id=":69227168_1_2" index="2" speed="11.11" length="18.89" shape="193.40,419.49 190.27,414.70 187.68,411.53 185.81,408.15 184.84,402.74"/>
        <lane id=":69227168_1_3" index="3" speed="11.11" length="18.89" shape="193.40,419.49 190.87,414.78 189.35,411.40 188.52,407.83 188.04,402.54"/>
    </edge>
    <edge id=":69227168_5" function="internal">
        <lane id=":69227168_5_0" index="0" speed="8.21" length="19.25" shape="193.40,419.49 191.76,414.66 192.64,410.95 196.03,408.38 201.94,406.93"/>
    </edge>
    <edge id=":69227168_6" function="internal">
        <lane id=":69227168_6_0" index="0" speed="4.72" length="7.01" shape="193.40,419.49 193.67,416.62 194.70,415.16 196.49,415.10 199.04,416.46"/>
        <lane id=":69227168_6_1" index="1" speed="3.65" length="7.01" shape="193.40,419.49 193.53,418.05 194.05,417.32 194.94,417.30 196.22,417.98"/>
    </edge>
    <edge id=":69227168_8" function="internal">
        <lane id=":69227168_8_0" index="0" speed="5.86" length="9.12" shape="202.33,410.10 199.76,410.79 198.36,412.08 198.12,413.97 199.04,416.46"/>
        <lane id=":69227168_8_1" index="1" speed="6.75" length="12.55" shape="202.33,410.10 198.31,411.04 195.95,412.67 195.26,414.98 196.22,417.98"/>
    </edge>
    <edge id=":69227168_10" function="internal">
        <lane id=":69227168_10_0" index="0" speed="11.11" length="22.72" shape="202.33,410.10 197.40,410.63 191.02,411.20 184.63,411.68 179.68,411.96"/>
    </edge>
    <edge id=":69227168_11" function="internal">
        <lane id=":69227168_11_0" index="0" speed="9.24" length="20.14" shape="202.33,410.10 196.99,409.94 191.35,408.49 186.82,406.00 184.84,402.74"/>
        <lane id=":69227168_11_1" index="1" speed="8.61" length="17.35" shape="202.33,410.10 197.88,409.85 193.29,408.30 189.64,405.77 188.04,402.54"/>
    </edge>
    <edge id=":69227168_13" function="internal">
        <lane id=":69227168_13_0" index="0" speed="3.65" length="4.67" shape="202.33,410.10 201.04,409.46 200.54,408.71 200.84,407.87 201.94,406.93"/>
    </edge>
    <edge id=":69227168_14" function="internal">
        <lane id=":69227168_14_0" index="0" speed="6.76" length="10.26" shape="194.42,402.13 195.03,404.56 196.48,406.17 198.79,406.96 201.94,406.93"/>
    </edge>
    <edge id=":69227168_15" function="internal">
        <lane id=":69227168_15_0" index="0" speed="11.11" length="16.16" shape="194.42,402.13 194.85,406.60 195.58,409.62 196.88,412.48 199.04,416.46"/>
        <lane id=":69227168_15_1" index="1" speed="11.11" length="16.16" shape="194.42,402.13 194.39,406.97 194.10,410.40 194.42,413.65 196.22,417.98"/>
        <lane id=":69227168_15_2" index="2" speed="11.11" length="16.16" shape="191.23,402.33 192.13,406.94 193.90,409.75 196.28,412.39 199.04,416.46"/>
        <lane id=":69227168_15_3" index="3" speed="11.11" length="16.16" shape="191.23,402.33 191.69,407.22 192.47,410.51 193.87,413.63 196.22,417.98"/>
    </edge>
    <edge id=":69227168_19" function="internal">
        <lane id=":69227168_19_0" index="0" speed="8.65" length="17.16" shape="191.23,402.33 190.73,406.39 188.64,409.34 184.96,411.20 179.68,411.96"/>
    </edge>
    <edge id=":69227168_20" function="internal">
        <lane id=":69227168_20_0" index="0" speed="4.72" length="7.01" shape="191.23,402.33 189.79,404.83 188.24,405.73 186.59,405.04 184.84,402.74"/>
        <lane id=":69227168_20_1" index="1" speed="3.65" length="7.01" shape="191.23,402.33 190.51,403.58 189.73,404.03 188.91,403.68 188.04,402.54"/>
    </edge>
    <edge id=":69227168_22" function="internal">
        <lane id=":69227168_22_0" index="0" speed="6.49" length="9.18" shape="179.57,408.76 182.02,408.31 183.71,407.16 184.65,405.30 184.84,402.74"/>
        <lane id=":69227168_22_1" index="1" speed="7.30" length="11.92" shape="179.57,408.76 183.42,408.26 186.11,407.05 187.65,405.15 188.04,402.54"/>
    </edge>
    <edge id=":69227168_24" function="internal">
        <lane id=":69227168_24_0" index="0" speed="11.11" length="22.44" shape="179.57,408.76 184.48,408.49 190.77,408.01 197.05,407.45 201.94,406.93"/>
    </edge>
    <edge id=":69227168_25" function="internal">
        <lane id=":69227168_25_0" index="0" speed="11.11" length="21.55" shape="179.57,408.76 185.25,409.29 191.09,410.98 196.05,413.49 199.04,416.46"/>
        <lane id=":69227168_25_1" index="1" speed="11.11" length="19.70" shape="179.57,408.76 184.23,409.44 189.08,411.49 193.34,414.48 196.22,417.98"/>
    </edge>
    <edge id=":69227168_27" function="internal">
        <lane id=":69227168_27_0" index="0" speed="3.65" length="4.67" shape="179.57,408.76 180.80,409.52 181.23,410.31 180.85,411.12 179.68,411.96"/>
    </edge>
    <edge id=":69227178_0" function="internal">
        <lane id=":69227178_0_0" index="0" speed="3.65" length="4.67" shape="328.92,391.23 330.21,391.88 330.71,392.62 330.41,393.47 329.32,394.41"/>
    </edge>
    <edge id=":69249210_0" function="internal">
        <lane id=":69249210_0_0" index="0" speed="6.87" length="9.13" shape="271.24,661.87 268.74,662.21 266.86,663.21 265.59,664.86 264.95,667.17"/>
        <lane id=":69249210_0_1" index="1" speed="7.67" length="11.62" shape="271.24,661.87 267.33,662.20 264.45,663.12 262.60,664.64 261.77,666.76"/>
    </edge>
    <edge id=":69249210_2" function="internal">
        <lane id=":69249210_2_0" index="0" speed="9.33" length="19.33" shape="271.24,661.87 264.66,661.38 259.93,659.82 257.04,657.19 256.00,653.49"/>
        <lane id=":69249210_2_1" index="1" speed="8.68" length="16.59" shape="271.24,661.87 266.06,661.37 262.33,659.79 260.04,657.13 259.20,653.40"/>
    </edge>
    <edge id=":69249210_4" function="internal">
        <lane id=":69249210_4_0" index="0" speed="3.65" length="4.67" shape="271.24,661.87 270.04,661.08 269.64,660.28 270.03,659.48 271.23,658.67"/>
    </edge>
    <edge id=":69249210_5" function="internal">
        <lane id=":69249210_5_0" index="0" speed="6.51" length="8.89" shape="265.60,653.23 266.00,655.62 267.08,657.33 268.82,658.34 271.23,658.67"/>
    </edge>
    <edge id=":69249210_6" function="internal">
        <lane id=":69249210_6_0" index="0" speed="11.11" length="13.98" shape="265.60,653.23 265.70,657.37 265.68,660.22 265.45,663.05 264.95,667.17"/>
        <lane id=":69249210_6_1" index="1" speed="11.11" length="13.98" shape="265.60,653.23 265.21,657.33 264.09,660.01 262.78,662.69 261.77,666.76"/>
        <lane id=":69249210_6_2" index="2" speed="11.11" length="13.98" shape="262.40,653.31 263.00,657.47 264.08,660.26 264.96,663.05 264.95,667.17"/>
        <lane id=":69249210_6_3" index="3" speed="11.11" length="13.98" shape="262.40,653.31 262.50,657.31 262.48,660.06 262.26,662.79 261.77,666.76"/>
    </edge>
    <edge id=":69249210_10" function="internal">
        <lane id=":69249210_10_0" index="0" speed="4.72" length="7.01" shape="262.40,653.31 260.86,655.76 259.29,656.60 257.67,655.84 256.00,653.49"/>
        <lane id=":69249210_10_1" index="1" speed="3.65" length="7.01" shape="262.40,653.31 261.63,654.54 260.84,654.96 260.03,654.58 259.20,653.40"/>
    </edge>
    <edge id=":69249210_12" function="internal">
        <lane id=":69249210_12_0" index="0" speed="11.11" length="13.00" shape="255.43,665.94 255.88,662.26 256.08,659.73 256.09,657.19 256.00,653.49"/>
        <lane id=":69249210_12_1" index="1" speed="11.11" length="13.00" shape="255.43,665.94 256.39,662.16 257.69,659.69 258.80,657.21 259.20,653.40"/>
        <lane id=":69249210_12_2" index="2" speed="11.11" length="13.00" shape="258.60,666.35 258.57,662.52 257.68,659.94 256.60,657.35 256.00,653.49"/>
        <lane id=":69249210_12_3" index="3" speed="11.11" length="13.00" shape="258.60,666.35 259.07,662.53 259.28,659.90 259.30,657.25 259.20,653.40"/>
    </edge>
    <edge id=":69249210_16" function="internal">
        <lane id=":69249210_16_0" index="0" speed="8.97" length="16.25" shape="258.60,666.35 259.76,663.02 262.25,660.62 266.07,659.18 271.23,658.67"/>
    </edge>
    <edge id=":69249210_17" function="internal">
        <lane id=":69249210_17_0" index="0" speed="4.72" length="7.01" shape="258.60,666.35 260.49,664.18 262.18,663.59 263.67,664.59 264.95,667.17"/>
        <lane id=":69249210_17_1" index="1" speed="3.65" length="7.01" shape="258.60,666.35 259.55,665.26 260.39,664.97 261.13,665.47 261.77,666.76"/>
    </edge>
    <edge id=":69249214_0" function="internal">
        <lane id=":69249214_0_0" index="0" speed="3.65" length="4.67" shape="338.72,658.28 339.93,659.07 340.33,659.87 339.93,660.67 338.74,661.48"/>
    </edge>
    <edge id=":69387063_0" function="internal">
        <lane id=":69387063_0_0" index="0" speed="3.65" length="4.67" shape="140.29,548.92 139.02,548.25 138.54,547.49 138.86,546.65 139.97,545.74"/>
    </edge>
    <edge id=":69387071_0" function="internal">
        <lane id=":69387071_0_0" index="0" speed="6.75" length="10.35" shape="252.96,543.43 252.44,540.97 251.02,539.32 248.71,538.48 245.51,538.44"/>
    </edge>
    <edge id=":69387071_1" function="internal">
        <lane id=":69387071_1_0" index="0" speed="11.11" length="16.30" shape="252.96,543.43 252.69,538.92 252.01,535.87 250.70,532.99 248.53,528.98"/>
        <lane id=":69387071_1_1" index="1" speed="11.11" length="16.30" shape="252.96,543.43 253.15,538.55 253.50,535.09 253.17,531.82 251.35,527.47"/>
        <lane id=":69387071_1_2" index="2" speed="11.11" length="16.30" shape="256.16,543.34 255.42,538.68 253.71,535.80 251.32,533.11 248.53,528.98"/>
        <lane id=":69387071_1_3" index="3" speed="11.11" length="16.30" shape="256.16,543.34 255.87,538.39 255.14,535.04 253.73,531.87 251.35,527.47"/>
    </edge>
    <edge id=":69387071_5" function="internal">
        <lane id=":69387071_5_0" index="0" speed="8.74" length="17.21" shape="256.16,543.34 256.80,539.27 258.98,536.32 262.69,534.50 267.93,533.81"/>
    </edge>
    <edge id=":69387071_6" function="internal">
        <lane id=":69387071_6_0" index="0" speed="4.72" length="7.01" shape="256.16,543.34 257.70,540.90 259.27,540.05 260.89,540.81 262.56,543.16"/>
        <lane id=":69387071_6_1" index="1" speed="3.65" length="7.01" shape="256.16,543.34 256.93,542.12 257.72,541.70 258.53,542.07 259.36,543.25"/>
    </edge>
    <edge id=":69387071_8" function="internal">
        <lane id=":69387071_8_0" index="0" speed="6.61" length="9.38" shape="268.00,537.01 265.56,537.44 263.84,538.61 262.84,540.51 262.56,543.16"/>
        <lane id=":69387071_8_1" index="1" speed="7.40" length="12.05" shape="268.00,537.01 264.16,537.47 261.44,538.66 259.84,540.59 259.36,543.25"/>
    </edge>
    <edge id=":69387071_10" function="internal">
        <lane id=":69387071_10_0" index="0" speed="11.11" length="22.53" shape="268.00,537.01 245.51,538.44"/>
    </edge>
    <edge id=":69387071_11" function="internal">
        <lane id=":69387071_11_0" index="0" speed="11.11" length="21.67" shape="268.00,537.01 262.31,536.40 256.48,534.62 251.53,532.02 248.53,528.98"/>
        <lane id=":69387071_11_1" index="1" speed="11.11" length="19.85" shape="268.00,537.01 263.37,536.26 258.53,534.12 254.26,531.04 251.35,527.47"/>
    </edge>
    <edge id=":69387071_13" function="internal">
        <lane id=":69387071_13_0" index="0" speed="3.65" length="4.67" shape="268.00,537.01 266.78,536.23 266.37,535.44 266.75,534.63 267.93,533.81"/>
    </edge>
    <edge id=":69387071_14" function="internal">
        <lane id=":69387071_14_0" index="0" speed="10.17" length="15.08" shape="256.99,524.44 259.59,528.59 262.27,531.53 265.06,533.27 267.93,533.81"/>
    </edge>
    <edge id=":69387071_15" function="internal">
        <lane id=":69387071_15_0" index="0" speed="11.11" length="19.27" shape="256.99,524.44 259.77,529.63 261.41,533.37 262.23,537.33 262.56,543.16"/>
        <lane id=":69387071_15_1" index="1" speed="11.11" length="19.27" shape="256.99,524.44 259.22,529.57 259.76,533.43 259.51,537.49 259.36,543.25"/>
        <lane id=":69387071_15_2" index="2" speed="11.11" length="19.27" shape="254.17,525.96 257.36,530.86 259.97,534.13 261.77,537.62 262.56,543.16"/>
        <lane id=":69387071_15_3" index="3" speed="11.11" length="19.27" shape="254.17,525.96 256.75,530.75 258.28,534.20 259.05,537.86 259.36,543.25"/>
    </edge>
    <edge id=":69387071_19" function="internal">
        <lane id=":69387071_19_0" index="0" speed="8.20" length="19.44" shape="254.17,525.96 255.85,530.87 254.97,534.59 251.52,537.11 245.51,538.44"/>
    </edge>
    <edge id=":69387071_20" function="internal">
        <lane id=":69387071_20_0" index="0" speed="4.72" length="7.01" shape="254.17,525.96 253.90,528.83 252.87,530.29 251.08,530.34 248.53,528.98"/>
        <lane id=":69387071_20_1" index="1" speed="3.65" length="7.01" shape="254.17,525.96 254.04,527.39 253.52,528.12 252.63,528.15 251.35,527.47"/>
    </edge>
    <edge id=":69387071_22" function="internal">
        <lane id=":69387071_22_0" index="0" speed="5.82" length="9.13" shape="245.20,535.25 247.79,534.62 249.21,533.37 249.46,531.49 248.53,528.98"/>
        <lane id=":69387071_22_1" index="1" speed="6.72" length="12.62" shape="245.20,535.25 249.26,534.40 251.64,532.82 252.34,530.51 251.35,527.47"/>
    </edge>
    <edge id=":69387071_24" function="internal">
        <lane id=":69387071_24_0" index="0" speed="11.11" length="22.78" shape="245.20,535.25 267.93,533.81"/>
    </edge>
    <edge id=":69387071_25" function="internal">
        <lane id=":69387071_25_0" index="0" speed="9.23" length="20.29" shape="245.20,535.25 250.56,535.55 256.20,537.17 260.68,539.81 262.56,543.16"/>
        <lane id=":69387071_25_1" index="1" speed="8.60" length="17.47" shape="245.20,535.25 249.67,535.62 254.25,537.29 257.85,539.95 259.36,543.25"/>
    </edge>
    <edge id=":69387071_27" function="internal">
        <lane id=":69387071_27_0" index="0" speed="3.65" length="4.67" shape="245.20,535.25 246.47,535.93 246.95,536.69 246.63,537.52 245.51,538.44"/>
    </edge>
    <edge id=":69387078_0" function="internal">
        <lane id=":69387078_0_0" index="0" speed="3.65" length="4.67" shape="335.79,532.35 337.00,533.12 337.42,533.92 337.04,534.72 335.85,535.55"/>
    </edge>
    <edge id=":69421271_0" function="internal">
        <lane id=":69421271_0_0" index="0" speed="4.72" length="7.01" shape="135.87,792.07 133.39,790.59 132.51,789.03 133.23,787.40 135.55,785.68"/>
        <lane id=":69421271_0_1" index="1" speed="3.65" length="7.01" shape="135.87,792.07 134.63,791.33 134.19,790.55 134.55,789.73 135.71,788.87"/>
    </edge>
    <edge id=":69421277_0" function="internal">
        <lane id=":69421277_0_0" index="0" speed="10.14" length="16.80" shape="257.62,788.89 253.44,789.75 250.04,791.71 247.41,794.78 245.55,798.95"/>
        <lane id=":69421277_0_1" index="1" speed="10.70" length="18.80" shape="257.62,788.89 251.97,789.78 247.56,791.59 244.40,794.33 242.49,798.00"/>
    </edge>
    <edge id=":69421277_2" function="internal">
        <lane id=":69421277_2_0" index="0" speed="11.11" length="25.80" shape="257.62,788.89 231.97,790.40"/>
        <lane id=":69421277_2_1" index="1" speed="11.11" length="25.80" shape="257.62,788.89 250.78,788.84 244.72,788.11 238.65,787.35 231.81,787.21"/>
    </edge>
    <edge id=":69421277_4" function="internal">
        <lane id=":69421277_4_0" index="0" speed="10.13" length="26.87" shape="257.40,785.70 249.84,785.12 244.76,782.22 242.17,776.97 242.06,769.39"/>
        <lane id=":69421277_4_1" index="1" speed="9.59" length="23.94" shape="257.40,785.70 251.26,785.07 247.19,782.21 245.18,777.12 245.23,769.80"/>
    </edge>
    <edge id=":69421277_6" function="internal">
        <lane id=":69421277_6_0" index="0" speed="5.58" length="9.35" shape="257.40,785.70 253.65,783.55 252.29,781.23 253.32,778.76 256.75,776.12"/>
        <lane id=":69421277_6_1" index="1" speed="4.72" length="9.35" shape="257.40,785.70 254.90,784.26 253.99,782.72 254.68,781.07 256.97,779.31"/>
        <lane id=":69421277_6_2" index="2" speed="3.65" length="9.35" shape="257.40,785.70 256.15,784.98 255.70,784.21 256.04,783.38 257.18,782.50"/>
    </edge>
    <edge id=":69421277_9" function="internal">
        <lane id=":69421277_9_0" index="0" speed="6.12" length="9.06" shape="251.58,770.62 251.62,773.18 252.49,774.95 254.20,775.93 256.75,776.12"/>
        <lane id=":69421277_9_1" index="1" speed="6.98" length="12.11" shape="251.58,770.62 251.47,774.59 252.34,777.36 254.17,778.94 256.97,779.31"/>
        <lane id=":69421277_9_2" index="2" speed="7.76" length="15.28" shape="251.58,770.62 251.33,776.00 252.18,779.78 254.13,781.94 257.18,782.50"/>
    </edge>
    <edge id=":69421277_12" function="internal">
        <lane id=":69421277_12_0" index="0" speed="11.11" length="28.95" shape="251.58,770.62 250.52,777.89 249.20,784.93 247.57,791.89 245.55,798.95"/>
        <lane id=":69421277_12_1" index="1" speed="11.11" length="28.95" shape="251.58,770.62 250.04,777.74 247.67,784.45 244.99,791.09 242.49,798.00"/>
    </edge>
    <edge id=":69421277_14" function="internal">
        <lane id=":69421277_14_0" index="0" speed="11.11" length="27.41" shape="248.41,770.21 246.35,776.95 242.38,783.40 237.32,788.31 231.97,790.40"/>
        <lane id=":69421277_14_1" index="1" speed="11.11" length="26.13" shape="248.41,770.21 246.58,777.37 243.21,782.59 238.28,785.87 231.81,787.21"/>
    </edge>
    <edge id=":69421277_16" function="internal">
        <lane id=":69421277_16_0" index="0" speed="4.72" length="7.01" shape="248.41,770.21 246.51,772.39 244.82,772.97 243.34,771.98 242.06,769.39"/>
        <lane id=":69421277_16_1" index="1" speed="3.65" length="7.01" shape="248.41,770.21 247.46,771.30 246.61,771.59 245.87,771.09 245.23,769.80"/>
    </edge>
    <edge id=":69421277_18" function="internal">
        <lane id=":69421277_18_0" index="0" speed="9.36" length="17.11" shape="231.48,780.81 235.58,779.93 238.71,777.73 240.87,774.21 242.06,769.39"/>
        <lane id=":69421277_18_1" index="1" speed="9.93" length="19.36" shape="231.48,780.81 237.00,779.89 241.12,777.75 243.87,774.38 245.23,769.80"/>
    </edge>
    <edge id=":69421277_20" function="internal">
        <lane id=":69421277_20_0" index="0" speed="11.11" length="25.70" shape="231.48,780.81 237.84,779.99 243.06,778.60 248.80,777.15 256.75,776.12"/>
        <lane id=":69421277_20_1" index="1" speed="11.11" length="25.70" shape="231.48,780.81 256.97,779.31"/>
        <lane id=":69421277_20_2" index="2" speed="11.11" length="25.70" shape="231.48,780.81 237.91,780.99 243.26,781.80 249.15,782.54 257.18,782.50"/>
    </edge>
    <edge id=":69421277_23" function="internal">
        <lane id=":69421277_23_0" index="0" speed="9.47" length="25.76" shape="231.65,784.01 239.59,784.58 244.55,787.27 246.54,792.06 245.55,798.95"/>
        <lane id=":69421277_23_1" index="1" speed="8.86" length="22.40" shape="231.65,784.01 238.12,784.59 242.08,787.11 243.54,791.58 242.49,798.00"/>
    </edge>
    <edge id=":69421277_25" function="internal">
        <lane id=":69421277_25_0" index="0" speed="4.72" length="7.01" shape="231.65,784.01 234.12,785.49 235.00,787.04 234.29,788.68 231.97,790.40"/>
        <lane id=":69421277_25_1" index="1" speed="3.65" length="7.01" shape="231.65,784.01 232.89,784.75 233.33,785.53 232.97,786.35 231.81,787.21"/>
    </edge>
    <edge id=":69421277_27" function="internal">
        <lane id=":69421277_27_0" index="0" speed="5.88" length="9.11" shape="236.38,796.09 236.81,793.48 236.22,791.66 234.60,790.64 231.97,790.40"/>
        <lane id=":69421277_27_1" index="1" speed="6.77" length="12.50" shape="236.38,796.09 237.18,792.06 236.68,789.24 234.89,787.62 231.81,787.21"/>
    </edge>
    <edge id=":69421277_29" function="internal">
        <lane id=":69421277_29_0" index="0" speed="11.11" length="27.57" shape="236.38,796.09 238.35,789.29 239.86,782.88 241.05,776.40 242.06,769.39"/>
        <lane id=":69421277_29_1" index="1" speed="11.11" length="27.57" shape="236.38,796.09 238.84,789.35 241.44,783.09 243.73,776.75 245.23,769.80"/>
    </edge>
    <edge id=":69421277_31" function="internal">
        <lane id=":69421277_31_0" index="0" speed="11.11" length="27.95" shape="239.44,797.04 242.50,790.25 247.06,783.54 252.14,778.35 256.75,776.12"/>
        <lane id=":69421277_31_1" index="1" speed="11.11" length="26.56" shape="239.44,797.04 242.51,789.60 246.46,784.16 251.28,780.73 256.97,779.31"/>
        <lane id=":69421277_31_2" index="2" speed="11.11" length="24.53" shape="239.44,797.04 242.14,791.03 246.00,786.60 251.01,783.76 257.18,782.50"/>
    </edge>
    <edge id=":69421277_34" function="internal">
        <lane id=":69421277_34_0" index="0" speed="4.72" length="7.01" shape="239.44,797.04 241.68,795.23 243.44,794.94 244.73,796.18 245.55,798.95"/>
        <lane id=":69421277_34_1" index="1" speed="3.65" length="7.01" shape="239.44,797.04 240.56,796.14 241.44,795.99 242.09,796.61 242.49,798.00"/>
    </edge>
    <edge id=":69515841_0" function="internal">
        <lane id=":69515841_0_0" index="0" speed="4.72" length="7.01" shape="165.02,0.08 166.49,-2.40 168.05,-3.28 169.69,-2.56 171.41,-0.25"/>
        <lane id=":69515841_0_1" index="1" speed="3.65" length="7.01" shape="165.02,0.08 165.76,-1.16 166.54,-1.60 167.36,-1.24 168.22,-0.08"/>
    </edge>
    <edge id=":69515842_0" function="internal">
        <lane id=":69515842_0_0" index="0" speed="8.82" length="13.92" shape="175.30,254.87 174.56,251.48 172.83,248.81 170.10,246.87 166.38,245.64"/>
        <lane id=":69515842_0_1" index="1" speed="9.44" length="16.07" shape="175.30,254.87 174.52,250.04 172.88,246.37 170.38,243.86 167.02,242.51"/>
    </edge>
    <edge id=":69515842_2" function="internal">
        <lane id=":69515842_2_0" index="0" speed="11.11" length="23.64" shape="175.30,254.87 173.93,231.39"/>
        <lane id=":69515842_2_1" index="1" speed="11.11" length="23.64" shape="175.30,254.87 175.39,248.37 176.17,243.05 176.97,237.73 177.13,231.22"/>
    </edge>
    <edge id=":69515842_4" function="internal">
        <lane id=":69515842_4_0" index="0" speed="9.68" length="23.11" shape="178.49,254.66 178.87,247.63 181.04,242.71 185.01,239.89 190.78,239.17"/>
        <lane id=":69515842_4_1" index="1" speed="9.09" length="20.25" shape="178.49,254.66 178.94,249.04 181.11,245.11 185.00,242.89 190.62,242.37"/>
    </edge>
    <edge id=":69515842_6" function="internal">
        <lane id=":69515842_6_0" index="0" speed="4.72" length="7.01" shape="178.49,254.66 179.94,252.16 181.48,251.26 183.13,251.96 184.88,254.25"/>
        <lane id=":69515842_6_1" index="1" speed="3.65" length="7.01" shape="178.49,254.66 179.21,253.41 179.99,252.96 180.81,253.31 181.69,254.46"/>
    </edge>
    <edge id=":69515842_8" function="internal">
        <lane id=":69515842_8_0" index="0" speed="6.27" length="9.04" shape="190.30,248.76 187.79,248.99 186.05,249.99 185.08,251.74 184.88,254.25"/>
        <lane id=":69515842_8_1" index="1" speed="7.11" length="11.94" shape="190.30,248.76 186.38,248.95 183.64,249.96 182.08,251.79 181.69,254.46"/>
    </edge>
    <edge id=":69515842_10" function="internal">
        <lane id=":69515842_10_0" index="0" speed="11.11" length="24.16" shape="190.30,248.76 183.72,248.34 178.27,247.76 172.85,246.90 166.38,245.64"/>
        <lane id=":69515842_10_1" index="1" speed="11.11" length="24.16" shape="190.30,248.76 183.82,247.85 178.59,246.20 173.39,244.26 167.02,242.51"/>
    </edge>
    <edge id=":69515842_12" function="internal">
        <lane id=":69515842_12_0" index="0" speed="10.73" length="24.26" shape="190.46,245.56 183.49,244.38 178.42,241.62 175.23,237.29 173.93,231.39"/>
        <lane id=":69515842_12_1" index="1" speed="10.20" length="21.84" shape="190.46,245.56 184.90,244.43 180.82,241.66 178.23,237.26 177.13,231.22"/>
    </edge>
    <edge id=":69515842_14" function="internal">
        <lane id=":69515842_14_0" index="0" speed="4.72" length="7.01" shape="190.46,245.56 188.14,243.85 187.42,242.21 188.30,240.65 190.78,239.17"/>
        <lane id=":69515842_14_1" index="1" speed="3.65" length="7.01" shape="190.46,245.56 189.30,244.71 188.94,243.89 189.38,243.11 190.62,242.37"/>
    </edge>
    <edge id=":69515842_16" function="internal">
        <lane id=":69515842_16_0" index="0" speed="7.77" length="12.28" shape="183.52,230.89 184.13,234.38 185.54,236.93 187.76,238.53 190.78,239.17"/>
        <lane id=":69515842_16_1" index="1" speed="8.49" length="14.83" shape="183.52,230.89 184.18,235.79 185.59,239.33 187.73,241.53 190.62,242.37"/>
    </edge>
    <edge id=":69515842_18" function="internal">
        <lane id=":69515842_18_0" index="0" speed="11.11" length="23.54" shape="183.52,230.89 184.88,254.25"/>
        <lane id=":69515842_18_1" index="1" speed="11.11" length="23.54" shape="183.52,230.89 183.36,237.38 182.56,242.68 181.78,247.97 181.69,254.46"/>
    </edge>
    <edge id=":69515842_20" function="internal">
        <lane id=":69515842_20_0" index="0" speed="9.53" length="24.58" shape="180.33,231.06 179.80,238.58 177.30,243.52 172.83,245.87 166.38,245.64"/>
        <lane id=":69515842_20_1" index="1" speed="8.94" length="21.45" shape="180.33,231.06 179.78,237.14 177.38,241.08 173.12,242.87 167.02,242.51"/>
    </edge>
    <edge id=":69515842_22" function="internal">
        <lane id=":69515842_22_0" index="0" speed="4.72" length="7.01" shape="180.33,231.06 178.85,233.54 177.30,234.42 175.66,233.71 173.93,231.39"/>
        <lane id=":69515842_22_1" index="1" speed="3.65" length="7.01" shape="180.33,231.06 179.59,232.30 178.81,232.74 177.99,232.38 177.13,231.22"/>
    </edge>
    <edge id=":69515842_24" function="internal">
        <lane id=":69515842_24_0" index="0" speed="6.03" length="9.07" shape="168.31,236.24 170.89,236.39 172.69,235.63 173.70,233.97 173.93,231.39"/>
        <lane id=":69515842_24_1" index="1" speed="6.89" length="12.25" shape="168.31,236.24 172.30,236.63 175.10,235.92 176.71,234.12 177.13,231.22"/>
    </edge>
    <edge id=":69515842_26" function="internal">
        <lane id=":69515842_26_0" index="0" speed="11.11" length="22.96" shape="168.31,236.24 174.55,237.47 179.47,238.27 184.43,238.78 190.78,239.17"/>
        <lane id=":69515842_26_1" index="1" speed="11.11" length="22.96" shape="168.31,236.24 174.52,237.97 179.39,239.86 184.30,241.48 190.62,242.37"/>
    </edge>
    <edge id=":69515842_28" function="internal">
        <lane id=":69515842_28_0" index="0" speed="11.11" length="24.56" shape="167.66,239.37 174.92,241.57 180.20,244.78 183.53,249.01 184.88,254.25"/>
        <lane id=":69515842_28_1" index="1" speed="11.06" length="22.35" shape="167.66,239.37 173.50,241.33 177.78,244.50 180.51,248.87 181.69,254.46"/>
    </edge>
    <edge id=":69515842_30" function="internal">
        <lane id=":69515842_30_0" index="0" speed="4.72" length="7.01" shape="167.66,239.37 169.70,241.42 170.16,243.15 169.05,244.55 166.38,245.64"/>
        <lane id=":69515842_30_1" index="1" speed="3.65" length="7.01" shape="167.66,239.37 168.68,240.40 168.91,241.26 168.36,241.96 167.02,242.51"/>
    </edge>
    <edge id=":69538856_0" function="internal">
        <lane id=":69538856_0_0" index="0" speed="11.11" length="1.69" shape="95.57,231.15 95.48,231.13"/>