<?xml version="1.0" encoding="utf-8"?>
<tlLogics version="1.1" xmlns:xsi="http://www.w3.org/2001/XMLSchema-instance" xsi:noNamespaceSchemaLocation="http://sumo.dlr.de/xsd/tllogic_file.xsd">
	<tlLogic id="69227168" offset="0" programID="0" type="static">
		<phase duration="25" state="rrrrrrrrrrrrrrrrrrGGGGGGrrrGGGrrrrrrrrrrrrrrrrrr"/>
		<phase duration="5" state="rrrrrrrrrrrrrrrrrrrrrrrrrrrrrrrrrrrrrrrrrrrrrrrr"/>
		<phase duration="15" state="rrrrrrrrrrrrrrrrrrGGGGGGrrrGGGrrrrrrrrrrrrrrrrrr"/>
		<phase duration="5" state="rrrrrrrrrrrrrrrrrrrrrrrrrrrrrrrrrrrrrrrrrrrrrrrr"/>
	</tlLogic>
	<tlLogic id="69249210" offset="0" programID="0" type="static">
		<phase duration="60" state="rrrrrrrrrrrrrrrrrrGGGGGGrrrGGG"/>
		<phase duration="5" state="rrrrrrrrrrrrrrrrrrrrrrrrrrr"/>
	</tlLogic>
	<tlLogic id="69387071" offset="0" programID="0" type="static">
		<phase duration="10" state="rrrrrrrrrrrrrrrrrrGGGGGGrrrGGGrrrrrrrrrrrrrrrrrr"/>
		<phase duration="5" state="rrrrrrrrrrrrrrrrrrrrrrrrrrrrrrrrrrrrrrrrrrrrrrrr"/>
		<phase duration="10" state="rrrrrrrrrrrrrrrrrrGGGGGGrrrGGGrrrrrrrrrrrrrrrrrr"/>
		<phase duration="5" state="rrrrrrrrrrrrrrrrrrrrrrrrrrrrrrrrrrrrrrrrrrrrrrrr"/>
	</tlLogic>
	<tlLogic id="69421277" offset="0" programID="0" type="static">
		<phase duration="10" state="rrrrrrrrrrrrrrrrrrrrrGGGrrrGGGrrrrrrrrrrrrrrrrrr"/>
		<phase duration="5" state="rrrrrrrrrrrrrrrrrrrrrrrrrrrrrrrrrrrrrrrrrrrrrrrr"/>
		<phase duration="10" state="rrrrrrrrrrrrrrrrrrGGGrrrrrrGGGrrrrrrrrrrrrrrrrrr"/>
		<phase duration="5" state="rrrrrrrrrrrrrrrrrrrrrrrrrrrrrrrrrrrrrrrrrrrrrrrr"/>
		<phase duration="25" state="rrrrrrrrrrrrrrrrrrrrrGGGrrrGGGrrrrrrrrrrrrrrrrrr"/>
		<phase duration="5" state="rrrrrrrrrrrrrrrrrrrrrrrrrrrrrrrrrrrrrrrrrrrrrrrr"/>
		<phase duration="15" state="rrrrrrrrrrrrrrrrrrGGGrrrrrrGGGrrrrrrrrrrrrrrrrrr"/>
		<phase duration="5" state="rrrrrrrrrrrrrrrrrrrrrrrrrrrrrrrrrrrrrrrrrrrrrrrr"/>
	</tlLogic>
	<tlLogic id="69515842" offset="0" programID="0" type="static">
		<phase duration="10" state="rrrrrrrrrrrrrrrrrrrrrGGGrrrGGGrrrrrrrrrrrrrrrrrr"/>
		<phase duration="5" state="rrrrrrrrrrrrrrrrrrrrrrrrrrrrrrrrrrrrrrrrrrrrrrrr"/>
		<phase duration="10" state="rrrrrrrrrrrrrrrrrrGGGrrrrrrGGGrrrrrrrrrrrrrrrrrr"/>
		<phase duration="5" state="rrrrrrrrrrrrrrrrrrrrrrrrrrrrrrrrrrrrrrrrrrrrrrrr"/>
		<phase duration="25" state="rrrrrrrrrrrrrrrrrrrrrGGGrrrGGGrrrrrrrrrrrrrrrrrr"/>
		<phase duration="5" state="rrrrrrrrrrrrrrrrrrrrrrrrrrrrrrrrrrrrrrrrrrrrrrrr"/>
		<phase duration="15" state="rrrrrrrrrrrrrrrrrrGGGrrrrrrGGGrrrrrrrrrrrrrrrrrr"/>
		<phase duration="5" state="rrrrrrrrrrrrrrrrrrrrrrrrrrrrrrrrrrrrrrrrrrrrrrrr"/>
	</tlLogic>
</tlLogics>
