<?xml version="1.0" encoding="utf-8"?>
<connections version="1.1" xmlns:xsi="http://www.w3.org/2001/XMLSchema-instance" xsi:noNamespaceSchemaLocation="http://sumo.dlr.de/xsd/connections_file.xsd">
	<connection from="road_0_1_0" fromLane="1" to="road_1_1_0" toLane="2"/>
	<connection from="road_0_1_0" fromLane="1" to="road_1_1_0" toLane="1"/>
	<connection from="road_0_1_0" fromLane="1" to="road_1_1_0" toLane="0"/>
	<connection from="road_0_1_0" fromLane="2" to="road_1_1_1" toLane="2"/>
	<connection from="road_0_1_0" fromLane="2" to="road_1_1_1" toLane="1"/>
	<connection from="road_0_1_0" fromLane="2" to="road_1_1_1" toLane="0"/>
	<connection from="road_0_1_0" fromLane="0" to="road_1_1_3" toLane="2"/>
	<connection from="road_0_1_0" fromLane="0" to="road_1_1_3" toLane="1"/>
	<connection from="road_0_1_0" fromLane="0" to="road_1_1_3" toLane="0"/>
	<connection from="road_1_0_1" fromLane="0" to="road_1_1_0" toLane="2"/>
	<connection from="road_1_0_1" fromLane="0" to="road_1_1_0" toLane="1"/>
	<connection from="road_1_0_1" fromLane="0" to="road_1_1_0" toLane="0"/>
	<connection from="road_1_0_1" fromLane="1" to="road_1_1_1" toLane="2"/>
	<connection from="road_1_0_1" fromLane="1" to="road_1_1_1" toLane="1"/>
	<connection from="road_1_0_1" fromLane="1" to="road_1_1_1" toLane="0"/>
	<connection from="road_1_0_1" fromLane="2" to="road_1_1_2" toLane="2"/>
	<connection from="road_1_0_1" fromLane="2" to="road_1_1_2" toLane="1"/>
	<connection from="road_1_0_1" fromLane="2" to="road_1_1_2" toLane="0"/>
	<connection from="road_2_1_2" fromLane="0" to="road_1_1_1" toLane="2"/>
	<connection from="road_2_1_2" fromLane="0" to="road_1_1_1" toLane="1"/>
	<connection from="road_2_1_2" fromLane="0" to="road_1_1_1" toLane="0"/>
	<connection from="road_2_1_2" fromLane="1" to="road_1_1_2" toLane="2"/>
	<connection from="road_2_1_2" fromLane="1" to="road_1_1_2" toLane="1"/>
	<connection from="road_2_1_2" fromLane="1" to="road_1_1_2" toLane="0"/>
	<connection from="road_2_1_2" fromLane="2" to="road_1_1_3" toLane="2"/>
	<connection from="road_2_1_2" fromLane="2" to="road_1_1_3" toLane="1"/>
	<connection from="road_2_1_2" fromLane="2" to="road_1_1_3" toLane="0"/>
	<connection from="road_1_2_3" fromLane="2" to="road_1_1_0" toLane="2"/>
	<connection from="road_1_2_3" fromLane="2" to="road_1_1_0" toLane="1"/>
	<connection from="road_1_2_3" fromLane="2" to="road_1_1_0" toLane="0"/>
	<connection from="road_1_2_3" fromLane="0" to="road_1_1_2" toLane="2"/>
	<connection from="road_1_2_3" fromLane="0" to="road_1_1_2" toLane="1"/>
	<connection from="road_1_2_3" fromLane="0" to="road_1_1_2" toLane="0"/>
	<connection from="road_1_2_3" fromLane="1" to="road_1_1_3" toLane="2"/>
	<connection from="road_1_2_3" fromLane="1" to="road_1_1_3" toLane="1"/>
	<connection from="road_1_2_3" fromLane="1" to="road_1_1_3" toLane="0"/>
	<connection from="road_0_2_0" fromLane="1" to="road_1_2_0" toLane="2"/>
	<connection from="road_0_2_0" fromLane="1" to="road_1_2_0" toLane="1"/>
	<connection from="road_0_2_0" fromLane="1" to="road_1_2_0" toLane="0"/>
	<connection from="road_0_2_0" fromLane="2" to="road_1_2_1" toLane="2"/>
	<connection from="road_0_2_0" fromLane="2" to="road_1_2_1" toLane="1"/>
	<connection from="road_0_2_0" fromLane="2" to="road_1_2_1" toLane="0"/>
	<connection from="road_0_2_0" fromLane="0" to="road_1_2_3" toLane="2"/>
	<connection from="road_0_2_0" fromLane="0" to="road_1_2_3" toLane="1"/>
	<connection from="road_0_2_0" fromLane="0" to="road_1_2_3" toLane="0"/>
	<connection from="road_1_1_1" fromLane="0" to="road_1_2_0" toLane="2"/>
	<connection from="road_1_1_1" fromLane="0" to="road_1_2_0" toLane="1"/>
	<connection from="road_1_1_1" fromLane="0" to="road_1_2_0" toLane="0"/>
	<connection from="road_1_1_1" fromLane="1" to="road_1_2_1" toLane="2"/>
	<connection from="road_1_1_1" fromLane="1" to="road_1_2_1" toLane="1"/>
	<connection from="road_1_1_1" fromLane="1" to="road_1_2_1" toLane="0"/>
	<connection from="road_1_1_1" fromLane="2" to="road_1_2_2" toLane="2"/>
	<connection from="road_1_1_1" fromLane="2" to="road_1_2_2" toLane="1"/>
	<connection from="road_1_1_1" fromLane="2" to="road_1_2_2" toLane="0"/>
	<connection from="road_2_2_2" fromLane="0" to="road_1_2_1" toLane="2"/>
	<connection from="road_2_2_2" fromLane="0" to="road_1_2_1" toLane="1"/>
	<connection from="road_2_2_2" fromLane="0" to="road_1_2_1" toLane="0"/>
	<connection from="road_2_2_2" fromLane="1" to="road_1_2_2" toLane="2"/>
	<connection from="road_2_2_2" fromLane="1" to="road_1_2_2" toLane="1"/>
	<connection from="road_2_2_2" fromLane="1" to="road_1_2_2" toLane="0"/>
	<connection from="road_2_2_2" fromLane="2" to="road_1_2_3" toLane="2"/>
	<connection from="road_2_2_2" fromLane="2" to="road_1_2_3" toLane="1"/>
	<connection from="road_2_2_2" fromLane="2" to="road_1_2_3" toLane="0"/>
	<connection from="road_1_3_3" fromLane="2" to="road_1_2_0" toLane="2"/>
	<connection from="road_1_3_3" fromLane="2" to="road_1_2_0" toLane="1"/>
	<connection from="road_1_3_3" fromLane="2" to="road_1_2_0" toLane="0"/>
	<connection from="road_1_3_3" fromLane="0" to="road_1_2_2" toLane="2"/>
	<connection from="road_1_3_3" fromLane="0" to="road_1_2_2" toLane="1"/>
	<connection from="road_1_3_3" fromLane="0" to="road_1_2_2" toLane="0"/>
	<connection from="road_1_3_3" fromLane="1" to="road_1_2_3" toLane="2"/>
	<connection from="road_1_3_3" fromLane="1" to="road_1_2_3" toLane="1"/>
	<connection from="road_1_3_3" fromLane="1" to="road_1_2_3" toLane="0"/>
	<connection from="road_0_3_0" fromLane="1" to="road_1_3_0" toLane="2"/>
	<connection from="road_0_3_0" fromLane="1" to="road_1_3_0" toLane="1"/>
	<connection from="road_0_3_0" fromLane="1" to="road_1_3_0" toLane="0"/>
	<connection from="road_0_3_0" fromLane="2" to="road_1_3_1" toLane="2"/>
	<connection from="road_0_3_0" fromLane="2" to="road_1_3_1" toLane="1"/>
	<connection from="road_0_3_0" fromLane="2" to="road_1_3_1" toLane="0"/>
	<connection from="road_0_3_0" fromLane="0" to="road_1_3_3" toLane="2"/>
	<connection from="road_0_3_0" fromLane="0" to="road_1_3_3" toLane="1"/>
	<connection from="road_0_3_0" fromLane="0" to="road_1_3_3" toLane="0"/>
	<connection from="road_1_2_1" fromLane="0" to="road_1_3_0" toLane="2"/>
	<connection from="road_1_2_1" fromLane="0" to="road_1_3_0" toLane="1"/>
	<connection from="road_1_2_1" fromLane="0" to="road_1_3_0" toLane="0"/>
	<connection from="road_1_2_1" fromLane="1" to="road_1_3_1" toLane="2"/>
	<connection from="road_1_2_1" fromLane="1" to="road_1_3_1" toLane="1"/>
	<connection from="road_1_2_1" fromLane="1" to="road_1_3_1" toLane="0"/>
	<connection from="road_1_2_1" fromLane="2" to="road_1_3_2" toLane="2"/>
	<connection from="road_1_2_1" fromLane="2" to="road_1_3_2" toLane="1"/>
	<connection from="road_1_2_1" fromLane="2" to="road_1_3_2" toLane="0"/>
	<connection from="road_2_3_2" fromLane="0" to="road_1_3_1" toLane="2"/>
	<connection from="road_2_3_2" fromLane="0" to="road_1_3_1" toLane="1"/>
	<connection from="road_2_3_2" fromLane="0" to="road_1_3_1" toLane="0"/>
	<connection from="road_2_3_2" fromLane="1" to="road_1_3_2" toLane="2"/>
	<connection from="road_2_3_2" fromLane="1" to="road_1_3_2" toLane="1"/>
	<connection from="road_2_3_2" fromLane="1" to="road_1_3_2" toLane="0"/>
	<connection from="road_2_3_2" fromLane="2" to="road_1_3_3" toLane="2"/>
	<connection from="road_2_3_2" fromLane="2" to="road_1_3_3" toLane="1"/>
	<connection from="road_2_3_2" fromLane="2" to="road_1_3_3" toLane="0"/>
	<connection from="road_1_4_3" fromLane="2" to="road_1_3_0" toLane="2"/>
	<connection from="road_1_4_3" fromLane="2" to="road_1_3_0" toLane="1"/>
	<connection from="road_1_4_3" fromLane="2" to="road_1_3_0" toLane="0"/>
	<connection from="road_1_4_3" fromLane="0" to="road_1_3_2" toLane="2"/>
	<connection from="road_1_4_3" fromLane="0" to="road_1_3_2" toLane="1"/>
	<connection from="road_1_4_3" fromLane="0" to="road_1_3_2" toLane="0"/>
	<connection from="road_1_4_3" fromLane="1" to="road_1_3_3" toLane="2"/>
	<connection from="road_1_4_3" fromLane="1" to="road_1_3_3" toLane="1"/>
	<connection from="road_1_4_3" fromLane="1" to="road_1_3_3" toLane="0"/>
	<connection from="road_0_4_0" fromLane="1" to="road_1_4_0" toLane="2"/>
	<connection from="road_0_4_0" fromLane="1" to="road_1_4_0" toLane="1"/>
	<connection from="road_0_4_0" fromLane="1" to="road_1_4_0" toLane="0"/>
	<connection from="road_0_4_0" fromLane="2" to="road_1_4_1" toLane="2"/>
	<connection from="road_0_4_0" fromLane="2" to="road_1_4_1" toLane="1"/>
	<connection from="road_0_4_0" fromLane="2" to="road_1_4_1" toLane="0"/>
	<connection from="road_0_4_0" fromLane="0" to="road_1_4_3" toLane="2"/>
	<connection from="road_0_4_0" fromLane="0" to="road_1_4_3" toLane="1"/>
	<connection from="road_0_4_0" fromLane="0" to="road_1_4_3" toLane="0"/>
	<connection from="road_1_3_1" fromLane="0" to="road_1_4_0" toLane="2"/>
	<connection from="road_1_3_1" fromLane="0" to="road_1_4_0" toLane="1"/>
	<connection from="road_1_3_1" fromLane="0" to="road_1_4_0" toLane="0"/>
	<connection from="road_1_3_1" fromLane="1" to="road_1_4_1" toLane="2"/>
	<connection from="road_1_3_1" fromLane="1" to="road_1_4_1" toLane="1"/>
	<connection from="road_1_3_1" fromLane="1" to="road_1_4_1" toLane="0"/>
	<connection from="road_1_3_1" fromLane="2" to="road_1_4_2" toLane="2"/>
	<connection from="road_1_3_1" fromLane="2" to="road_1_4_2" toLane="1"/>
	<connection from="road_1_3_1" fromLane="2" to="road_1_4_2" toLane="0"/>
	<connection from="road_2_4_2" fromLane="0" to="road_1_4_1" toLane="2"/>
	<connection from="road_2_4_2" fromLane="0" to="road_1_4_1" toLane="1"/>
	<connection from="road_2_4_2" fromLane="0" to="road_1_4_1" toLane="0"/>
	<connection from="road_2_4_2" fromLane="1" to="road_1_4_2" toLane="2"/>
	<connection from="road_2_4_2" fromLane="1" to="road_1_4_2" toLane="1"/>
	<connection from="road_2_4_2" fromLane="1" to="road_1_4_2" toLane="0"/>
	<connection from="road_2_4_2" fromLane="2" to="road_1_4_3" toLane="2"/>
	<connection from="road_2_4_2" fromLane="2" to="road_1_4_3" toLane="1"/>
	<connection from="road_2_4_2" fromLane="2" to="road_1_4_3" toLane="0"/>
	<connection from="road_1_5_3" fromLane="2" to="road_1_4_0" toLane="2"/>
	<connection from="road_1_5_3" fromLane="2" to="road_1_4_0" toLane="1"/>
	<connection from="road_1_5_3" fromLane="2" to="road_1_4_0" toLane="0"/>
	<connection from="road_1_5_3" fromLane="0" to="road_1_4_2" toLane="2"/>
	<connection from="road_1_5_3" fromLane="0" to="road_1_4_2" toLane="1"/>
	<connection from="road_1_5_3" fromLane="0" to="road_1_4_2" toLane="0"/>
	<connection from="road_1_5_3" fromLane="1" to="road_1_4_3" toLane="2"/>
	<connection from="road_1_5_3" fromLane="1" to="road_1_4_3" toLane="1"/>
	<connection from="road_1_5_3" fromLane="1" to="road_1_4_3" toLane="0"/>
	<connection from="road_0_5_0" fromLane="1" to="road_1_5_0" toLane="2"/>
	<connection from="road_0_5_0" fromLane="1" to="road_1_5_0" toLane="1"/>
	<connection from="road_0_5_0" fromLane="1" to="road_1_5_0" toLane="0"/>
	<connection from="road_0_5_0" fromLane="2" to="road_1_5_1" toLane="2"/>
	<connection from="road_0_5_0" fromLane="2" to="road_1_5_1" toLane="1"/>
	<connection from="road_0_5_0" fromLane="2" to="road_1_5_1" toLane="0"/>
	<connection from="road_0_5_0" fromLane="0" to="road_1_5_3" toLane="2"/>
	<connection from="road_0_5_0" fromLane="0" to="road_1_5_3" toLane="1"/>
	<connection from="road_0_5_0" fromLane="0" to="road_1_5_3" toLane="0"/>
	<connection from="road_1_4_1" fromLane="0" to="road_1_5_0" toLane="2"/>
	<connection from="road_1_4_1" fromLane="0" to="road_1_5_0" toLane="1"/>
	<connection from="road_1_4_1" fromLane="0" to="road_1_5_0" toLane="0"/>
	<connection from="road_1_4_1" fromLane="1" to="road_1_5_1" toLane="2"/>
	<connection from="road_1_4_1" fromLane="1" to="road_1_5_1" toLane="1"/>
	<connection from="road_1_4_1" fromLane="1" to="road_1_5_1" toLane="0"/>
	<connection from="road_1_4_1" fromLane="2" to="road_1_5_2" toLane="2"/>
	<connection from="road_1_4_1" fromLane="2" to="road_1_5_2" toLane="1"/>
	<connection from="road_1_4_1" fromLane="2" to="road_1_5_2" toLane="0"/>
	<connection from="road_2_5_2" fromLane="0" to="road_1_5_1" toLane="2"/>
	<connection from="road_2_5_2" fromLane="0" to="road_1_5_1" toLane="1"/>
	<connection from="road_2_5_2" fromLane="0" to="road_1_5_1" toLane="0"/>
	<connection from="road_2_5_2" fromLane="1" to="road_1_5_2" toLane="2"/>
	<connection from="road_2_5_2" fromLane="1" to="road_1_5_2" toLane="1"/>
	<connection from="road_2_5_2" fromLane="1" to="road_1_5_2" toLane="0"/>
	<connection from="road_2_5_2" fromLane="2" to="road_1_5_3" toLane="2"/>
	<connection from="road_2_5_2" fromLane="2" to="road_1_5_3" toLane="1"/>
	<connection from="road_2_5_2" fromLane="2" to="road_1_5_3" toLane="0"/>
	<connection from="road_1_6_3" fromLane="2" to="road_1_5_0" toLane="2"/>
	<connection from="road_1_6_3" fromLane="2" to="road_1_5_0" toLane="1"/>
	<connection from="road_1_6_3" fromLane="2" to="road_1_5_0" toLane="0"/>
	<connection from="road_1_6_3" fromLane="0" to="road_1_5_2" toLane="2"/>
	<connection from="road_1_6_3" fromLane="0" to="road_1_5_2" toLane="1"/>
	<connection from="road_1_6_3" fromLane="0" to="road_1_5_2" toLane="0"/>
	<connection from="road_1_6_3" fromLane="1" to="road_1_5_3" toLane="2"/>
	<connection from="road_1_6_3" fromLane="1" to="road_1_5_3" toLane="1"/>
	<connection from="road_1_6_3" fromLane="1" to="road_1_5_3" toLane="0"/>
	<connection from="road_0_6_0" fromLane="1" to="road_1_6_0" toLane="2"/>
	<connection from="road_0_6_0" fromLane="1" to="road_1_6_0" toLane="1"/>
	<connection from="road_0_6_0" fromLane="1" to="road_1_6_0" toLane="0"/>
	<connection from="road_0_6_0" fromLane="2" to="road_1_6_1" toLane="2"/>
	<connection from="road_0_6_0" fromLane="2" to="road_1_6_1" toLane="1"/>
	<connection from="road_0_6_0" fromLane="2" to="road_1_6_1" toLane="0"/>
	<connection from="road_0_6_0" fromLane="0" to="road_1_6_3" toLane="2"/>
	<connection from="road_0_6_0" fromLane="0" to="road_1_6_3" toLane="1"/>
	<connection from="road_0_6_0" fromLane="0" to="road_1_6_3" toLane="0"/>
	<connection from="road_1_5_1" fromLane="0" to="road_1_6_0" toLane="2"/>
	<connection from="road_1_5_1" fromLane="0" to="road_1_6_0" toLane="1"/>
	<connection from="road_1_5_1" fromLane="0" to="road_1_6_0" toLane="0"/>
	<connection from="road_1_5_1" fromLane="1" to="road_1_6_1" toLane="2"/>
	<connection from="road_1_5_1" fromLane="1" to="road_1_6_1" toLane="1"/>
	<connection from="road_1_5_1" fromLane="1" to="road_1_6_1" toLane="0"/>
	<connection from="road_1_5_1" fromLane="2" to="road_1_6_2" toLane="2"/>
	<connection from="road_1_5_1" fromLane="2" to="road_1_6_2" toLane="1"/>
	<connection from="road_1_5_1" fromLane="2" to="road_1_6_2" toLane="0"/>
	<connection from="road_2_6_2" fromLane="0" to="road_1_6_1" toLane="2"/>
	<connection from="road_2_6_2" fromLane="0" to="road_1_6_1" toLane="1"/>
	<connection from="road_2_6_2" fromLane="0" to="road_1_6_1" toLane="0"/>
	<connection from="road_2_6_2" fromLane="1" to="road_1_6_2" toLane="2"/>
	<connection from="road_2_6_2" fromLane="1" to="road_1_6_2" toLane="1"/>
	<connection from="road_2_6_2" fromLane="1" to="road_1_6_2" toLane="0"/>
	<connection from="road_2_6_2" fromLane="2" to="road_1_6_3" toLane="2"/>
	<connection from="road_2_6_2" fromLane="2" to="road_1_6_3" toLane="1"/>
	<connection from="road_2_6_2" fromLane="2" to="road_1_6_3" toLane="0"/>
	<connection from="road_1_7_3" fromLane="2" to="road_1_6_0" toLane="2"/>
	<connection from="road_1_7_3" fromLane="2" to="road_1_6_0" toLane="1"/>
	<connection from="road_1_7_3" fromLane="2" to="road_1_6_0" toLane="0"/>
	<connection from="road_1_7_3" fromLane="0" to="road_1_6_2" toLane="2"/>
	<connection from="road_1_7_3" fromLane="0" to="road_1_6_2" toLane="1"/>
	<connection from="road_1_7_3" fromLane="0" to="road_1_6_2" toLane="0"/>
	<connection from="road_1_7_3" fromLane="1" to="road_1_6_3" toLane="2"/>
	<connection from="road_1_7_3" fromLane="1" to="road_1_6_3" toLane="1"/>
	<connection from="road_1_7_3" fromLane="1" to="road_1_6_3" toLane="0"/>
	<connection from="road_0_7_0" fromLane="1" to="road_1_7_0" toLane="2"/>
	<connection from="road_0_7_0" fromLane="1" to="road_1_7_0" toLane="1"/>
	<connection from="road_0_7_0" fromLane="1" to="road_1_7_0" toLane="0"/>
	<connection from="road_0_7_0" fromLane="2" to="road_1_7_1" toLane="2"/>
	<connection from="road_0_7_0" fromLane="2" to="road_1_7_1" toLane="1"/>
	<connection from="road_0_7_0" fromLane="2" to="road_1_7_1" toLane="0"/>
	<connection from="road_0_7_0" fromLane="0" to="road_1_7_3" toLane="2"/>
	<connection from="road_0_7_0" fromLane="0" to="road_1_7_3" toLane="1"/>
	<connection from="road_0_7_0" fromLane="0" to="road_1_7_3" toLane="0"/>
	<connection from="road_1_6_1" fromLane="0" to="road_1_7_0" toLane="2"/>
	<connection from="road_1_6_1" fromLane="0" to="road_1_7_0" toLane="1"/>
	<connection from="road_1_6_1" fromLane="0" to="road_1_7_0" toLane="0"/>
	<connection from="road_1_6_1" fromLane="1" to="road_1_7_1" toLane="2"/>
	<connection from="road_1_6_1" fromLane="1" to="road_1_7_1" toLane="1"/>
	<connection from="road_1_6_1" fromLane="1" to="road_1_7_1" toLane="0"/>
	<connection from="road_1_6_1" fromLane="2" to="road_1_7_2" toLane="2"/>
	<connection from="road_1_6_1" fromLane="2" to="road_1_7_2" toLane="1"/>
	<connection from="road_1_6_1" fromLane="2" to="road_1_7_2" toLane="0"/>
	<connection from="road_2_7_2" fromLane="0" to="road_1_7_1" toLane="2"/>
	<connection from="road_2_7_2" fromLane="0" to="road_1_7_1" toLane="1"/>
	<connection from="road_2_7_2" fromLane="0" to="road_1_7_1" toLane="0"/>
	<connection from="road_2_7_2" fromLane="1" to="road_1_7_2" toLane="2"/>
	<connection from="road_2_7_2" fromLane="1" to="road_1_7_2" toLane="1"/>
	<connection from="road_2_7_2" fromLane="1" to="road_1_7_2" toLane="0"/>
	<connection from="road_2_7_2" fromLane="2" to="road_1_7_3" toLane="2"/>
	<connection from="road_2_7_2" fromLane="2" to="road_1_7_3" toLane="1"/>
	<connection from="road_2_7_2" fromLane="2" to="road_1_7_3" toLane="0"/>
	<connection from="road_1_8_3" fromLane="2" to="road_1_7_0" toLane="2"/>
	<connection from="road_1_8_3" fromLane="2" to="road_1_7_0" toLane="1"/>
	<connection from="road_1_8_3" fromLane="2" to="road_1_7_0" toLane="0"/>
	<connection from="road_1_8_3" fromLane="0" to="road_1_7_2" toLane="2"/>
	<connection from="road_1_8_3" fromLane="0" to="road_1_7_2" toLane="1"/>
	<connection from="road_1_8_3" fromLane="0" to="road_1_7_2" toLane="0"/>
	<connection from="road_1_8_3" fromLane="1" to="road_1_7_3" toLane="2"/>
	<connection from="road_1_8_3" fromLane="1" to="road_1_7_3" toLane="1"/>
	<connection from="road_1_8_3" fromLane="1" to="road_1_7_3" toLane="0"/>
	<connection from="road_0_8_0" fromLane="1" to="road_1_8_0" toLane="2"/>
	<connection from="road_0_8_0" fromLane="1" to="road_1_8_0" toLane="1"/>
	<connection from="road_0_8_0" fromLane="1" to="road_1_8_0" toLane="0"/>
	<connection from="road_0_8_0" fromLane="2" to="road_1_8_1" toLane="2"/>
	<connection from="road_0_8_0" fromLane="2" to="road_1_8_1" toLane="1"/>
	<connection from="road_0_8_0" fromLane="2" to="road_1_8_1" toLane="0"/>
	<connection from="road_0_8_0" fromLane="0" to="road_1_8_3" toLane="2"/>
	<connection from="road_0_8_0" fromLane="0" to="road_1_8_3" toLane="1"/>
	<connection from="road_0_8_0" fromLane="0" to="road_1_8_3" toLane="0"/>
	<connection from="road_1_7_1" fromLane="0" to="road_1_8_0" toLane="2"/>
	<connection from="road_1_7_1" fromLane="0" to="road_1_8_0" toLane="1"/>
	<connection from="road_1_7_1" fromLane="0" to="road_1_8_0" toLane="0"/>
	<connection from="road_1_7_1" fromLane="1" to="road_1_8_1" toLane="2"/>
	<connection from="road_1_7_1" fromLane="1" to="road_1_8_1" toLane="1"/>
	<connection from="road_1_7_1" fromLane="1" to="road_1_8_1" toLane="0"/>
	<connection from="road_1_7_1" fromLane="2" to="road_1_8_2" toLane="2"/>
	<connection from="road_1_7_1" fromLane="2" to="road_1_8_2" toLane="1"/>
	<connection from="road_1_7_1" fromLane="2" to="road_1_8_2" toLane="0"/>
	<connection from="road_2_8_2" fromLane="0" to="road_1_8_1" toLane="2"/>
	<connection from="road_2_8_2" fromLane="0" to="road_1_8_1" toLane="1"/>
	<connection from="road_2_8_2" fromLane="0" to="road_1_8_1" toLane="0"/>
	<connection from="road_2_8_2" fromLane="1" to="road_1_8_2" toLane="2"/>
	<connection from="road_2_8_2" fromLane="1" to="road_1_8_2" toLane="1"/>
	<connection from="road_2_8_2" fromLane="1" to="road_1_8_2" toLane="0"/>
	<connection from="road_2_8_2" fromLane="2" to="road_1_8_3" toLane="2"/>
	<connection from="road_2_8_2" fromLane="2" to="road_1_8_3" toLane="1"/>
	<connection from="road_2_8_2" fromLane="2" to="road_1_8_3" toLane="0"/>
	<connection from="road_1_9_3" fromLane="2" to="road_1_8_0" toLane="2"/>
	<connection from="road_1_9_3" fromLane="2" to="road_1_8_0" toLane="1"/>
	<connection from="road_1_9_3" fromLane="2" to="road_1_8_0" toLane="0"/>
	<connection from="road_1_9_3" fromLane="0" to="road_1_8_2" toLane="2"/>
	<connection from="road_1_9_3" fromLane="0" to="road_1_8_2" toLane="1"/>
	<connection from="road_1_9_3" fromLane="0" to="road_1_8_2" toLane="0"/>
	<connection from="road_1_9_3" fromLane="1" to="road_1_8_3" toLane="2"/>
	<connection from="road_1_9_3" fromLane="1" to="road_1_8_3" toLane="1"/>
	<connection from="road_1_9_3" fromLane="1" to="road_1_8_3" toLane="0"/>
	<connection from="road_0_9_0" fromLane="1" to="road_1_9_0" toLane="2"/>
	<connection from="road_0_9_0" fromLane="1" to="road_1_9_0" toLane="1"/>
	<connection from="road_0_9_0" fromLane="1" to="road_1_9_0" toLane="0"/>
	<connection from="road_0_9_0" fromLane="2" to="road_1_9_1" toLane="2"/>
	<connection from="road_0_9_0" fromLane="2" to="road_1_9_1" toLane="1"/>
	<connection from="road_0_9_0" fromLane="2" to="road_1_9_1" toLane="0"/>
	<connection from="road_0_9_0" fromLane="0" to="road_1_9_3" toLane="2"/>
	<connection from="road_0_9_0" fromLane="0" to="road_1_9_3" toLane="1"/>
	<connection from="road_0_9_0" fromLane="0" to="road_1_9_3" toLane="0"/>
	<connection from="road_1_8_1" fromLane="0" to="road_1_9_0" toLane="2"/>
	<connection from="road_1_8_1" fromLane="0" to="road_1_9_0" toLane="1"/>
	<connection from="road_1_8_1" fromLane="0" to="road_1_9_0" toLane="0"/>
	<connection from="road_1_8_1" fromLane="1" to="road_1_9_1" toLane="2"/>
	<connection from="road_1_8_1" fromLane="1" to="road_1_9_1" toLane="1"/>
	<connection from="road_1_8_1" fromLane="1" to="road_1_9_1" toLane="0"/>
	<connection from="road_1_8_1" fromLane="2" to="road_1_9_2" toLane="2"/>
	<connection from="road_1_8_1" fromLane="2" to="road_1_9_2" toLane="1"/>
	<connection from="road_1_8_1" fromLane="2" to="road_1_9_2" toLane="0"/>
	<connection from="road_2_9_2" fromLane="0" to="road_1_9_1" toLane="2"/>
	<connection from="road_2_9_2" fromLane="0" to="road_1_9_1" toLane="1"/>
	<connection from="road_2_9_2" fromLane="0" to="road_1_9_1" toLane="0"/>
	<connection from="road_2_9_2" fromLane="1" to="road_1_9_2" toLane="2"/>
	<connection from="road_2_9_2" fromLane="1" to="road_1_9_2" toLane="1"/>
	<connection from="road_2_9_2" fromLane="1" to="road_1_9_2" toLane="0"/>
	<connection from="road_2_9_2" fromLane="2" to="road_1_9_3" toLane="2"/>
	<connection from="road_2_9_2" fromLane="2" to="road_1_9_3" toLane="1"/>
	<connection from="road_2_9_2" fromLane="2" to="road_1_9_3" toLane="0"/>
	<connection from="road_1_10_3" fromLane="2" to="road_1_9_0" toLane="2"/>
	<connection from="road_1_10_3" fromLane="2" to="road_1_9_0" toLane="1"/>
	<connection from="road_1_10_3" fromLane="2" to="road_1_9_0" toLane="0"/>
	<connection from="road_1_10_3" fromLane="0" to="road_1_9_2" toLane="2"/>
	<connection from="road_1_10_3" fromLane="0" to="road_1_9_2" toLane="1"/>
	<connection from="road_1_10_3" fromLane="0" to="road_1_9_2" toLane="0"/>
	<connection from="road_1_10_3" fromLane="1" to="road_1_9_3" toLane="2"/>
	<connection from="road_1_10_3" fromLane="1" to="road_1_9_3" toLane="1"/>
	<connection from="road_1_10_3" fromLane="1" to="road_1_9_3" toLane="0"/>
	<connection from="road_0_10_0" fromLane="1" to="road_1_10_0" toLane="2"/>
	<connection from="road_0_10_0" fromLane="1" to="road_1_10_0" toLane="1"/>
	<connection from="road_0_10_0" fromLane="1" to="road_1_10_0" toLane="0"/>
	<connection from="road_0_10_0" fromLane="2" to="road_1_10_1" toLane="2"/>
	<connection from="road_0_10_0" fromLane="2" to="road_1_10_1" toLane="1"/>
	<connection from="road_0_10_0" fromLane="2" to="road_1_10_1" toLane="0"/>
	<connection from="road_0_10_0" fromLane="0" to="road_1_10_3" toLane="2"/>
	<connection from="road_0_10_0" fromLane="0" to="road_1_10_3" toLane="1"/>
	<connection from="road_0_10_0" fromLane="0" to="road_1_10_3" toLane="0"/>
	<connection from="road_1_9_1" fromLane="0" to="road_1_10_0" toLane="2"/>
	<connection from="road_1_9_1" fromLane="0" to="road_1_10_0" toLane="1"/>
	<connection from="road_1_9_1" fromLane="0" to="road_1_10_0" toLane="0"/>
	<connection from="road_1_9_1" fromLane="1" to="road_1_10_1" toLane="2"/>
	<connection from="road_1_9_1" fromLane="1" to="road_1_10_1" toLane="1"/>
	<connection from="road_1_9_1" fromLane="1" to="road_1_10_1" toLane="0"/>
	<connection from="road_1_9_1" fromLane="2" to="road_1_10_2" toLane="2"/>
	<connection from="road_1_9_1" fromLane="2" to="road_1_10_2" toLane="1"/>
	<connection from="road_1_9_1" fromLane="2" to="road_1_10_2" toLane="0"/>
	<connection from="road_2_10_2" fromLane="0" to="road_1_10_1" toLane="2"/>
	<connection from="road_2_10_2" fromLane="0" to="road_1_10_1" toLane="1"/>
	<connection from="road_2_10_2" fromLane="0" to="road_1_10_1" toLane="0"/>
	<connection from="road_2_10_2" fromLane="1" to="road_1_10_2" toLane="2"/>
	<connection from="road_2_10_2" fromLane="1" to="road_1_10_2" toLane="1"/>
	<connection from="road_2_10_2" fromLane="1" to="road_1_10_2" toLane="0"/>
	<connection from="road_2_10_2" fromLane="2" to="road_1_10_3" toLane="2"/>
	<connection from="road_2_10_2" fromLane="2" to="road_1_10_3" toLane="1"/>
	<connection from="road_2_10_2" fromLane="2" to="road_1_10_3" toLane="0"/>
	<connection from="road_1_11_3" fromLane="2" to="road_1_10_0" toLane="2"/>
	<connection from="road_1_11_3" fromLane="2" to="road_1_10_0" toLane="1"/>
	<connection from="road_1_11_3" fromLane="2" to="road_1_10_0" toLane="0"/>
	<connection from="road_1_11_3" fromLane="0" to="road_1_10_2" toLane="2"/>
	<connection from="road_1_11_3" fromLane="0" to="road_1_10_2" toLane="1"/>
	<connection from="road_1_11_3" fromLane="0" to="road_1_10_2" toLane="0"/>
	<connection from="road_1_11_3" fromLane="1" to="road_1_10_3" toLane="2"/>
	<connection from="road_1_11_3" fromLane="1" to="road_1_10_3" toLane="1"/>
	<connection from="road_1_11_3" fromLane="1" to="road_1_10_3" toLane="0"/>
	<connection from="road_0_11_0" fromLane="1" to="road_1_11_0" toLane="2"/>
	<connection from="road_0_11_0" fromLane="1" to="road_1_11_0" toLane="1"/>
	<connection from="road_0_11_0" fromLane="1" to="road_1_11_0" toLane="0"/>
	<connection from="road_0_11_0" fromLane="2" to="road_1_11_1" toLane="2"/>
	<connection from="road_0_11_0" fromLane="2" to="road_1_11_1" toLane="1"/>
	<connection from="road_0_11_0" fromLane="2" to="road_1_11_1" toLane="0"/>
	<connection from="road_0_11_0" fromLane="0" to="road_1_11_3" toLane="2"/>
	<connection from="road_0_11_0" fromLane="0" to="road_1_11_3" toLane="1"/>
	<connection from="road_0_11_0" fromLane="0" to="road_1_11_3" toLane="0"/>
	<connection from="road_1_10_1" fromLane="0" to="road_1_11_0" toLane="2"/>
	<connection from="road_1_10_1" fromLane="0" to="road_1_11_0" toLane="1"/>
	<connection from="road_1_10_1" fromLane="0" to="road_1_11_0" toLane="0"/>
	<connection from="road_1_10_1" fromLane="1" to="road_1_11_1" toLane="2"/>
	<connection from="road_1_10_1" fromLane="1" to="road_1_11_1" toLane="1"/>
	<connection from="road_1_10_1" fromLane="1" to="road_1_11_1" toLane="0"/>
	<connection from="road_1_10_1" fromLane="2" to="road_1_11_2" toLane="2"/>
	<connection from="road_1_10_1" fromLane="2" to="road_1_11_2" toLane="1"/>
	<connection from="road_1_10_1" fromLane="2" to="road_1_11_2" toLane="0"/>
	<connection from="road_2_11_2" fromLane="0" to="road_1_11_1" toLane="2"/>
	<connection from="road_2_11_2" fromLane="0" to="road_1_11_1" toLane="1"/>
	<connection from="road_2_11_2" fromLane="0" to="road_1_11_1" toLane="0"/>
	<connection from="road_2_11_2" fromLane="1" to="road_1_11_2" toLane="2"/>
	<connection from="road_2_11_2" fromLane="1" to="road_1_11_2" toLane="1"/>
	<connection from="road_2_11_2" fromLane="1" to="road_1_11_2" toLane="0"/>
	<connection from="road_2_11_2" fromLane="2" to="road_1_11_3" toLane="2"/>
	<connection from="road_2_11_2" fromLane="2" to="road_1_11_3" toLane="1"/>
	<connection from="road_2_11_2" fromLane="2" to="road_1_11_3" toLane="0"/>
	<connection from="road_1_12_3" fromLane="2" to="road_1_11_0" toLane="2"/>
	<connection from="road_1_12_3" fromLane="2" to="road_1_11_0" toLane="1"/>
	<connection from="road_1_12_3" fromLane="2" to="road_1_11_0" toLane="0"/>
	<connection from="road_1_12_3" fromLane="0" to="road_1_11_2" toLane="2"/>
	<connection from="road_1_12_3" fromLane="0" to="road_1_11_2" toLane="1"/>
	<connection from="road_1_12_3" fromLane="0" to="road_1_11_2" toLane="0"/>
	<connection from="road_1_12_3" fromLane="1" to="road_1_11_3" toLane="2"/>
	<connection from="road_1_12_3" fromLane="1" to="road_1_11_3" toLane="1"/>
	<connection from="road_1_12_3" fromLane="1" to="road_1_11_3" toLane="0"/>
	<connection from="road_0_12_0" fromLane="1" to="road_1_12_0" toLane="2"/>
	<connection from="road_0_12_0" fromLane="1" to="road_1_12_0" toLane="1"/>
	<connection from="road_0_12_0" fromLane="1" to="road_1_12_0" toLane="0"/>
	<connection from="road_0_12_0" fromLane="2" to="road_1_12_1" toLane="2"/>
	<connection from="road_0_12_0" fromLane="2" to="road_1_12_1" toLane="1"/>
	<connection from="road_0_12_0" fromLane="2" to="road_1_12_1" toLane="0"/>
	<connection from="road_0_12_0" fromLane="0" to="road_1_12_3" toLane="2"/>
	<connection from="road_0_12_0" fromLane="0" to="road_1_12_3" toLane="1"/>
	<connection from="road_0_12_0" fromLane="0" to="road_1_12_3" toLane="0"/>
	<connection from="road_1_11_1" fromLane="0" to="road_1_12_0" toLane="2"/>