<?xml version="1.0" encoding="utf-8"?>
<tlLogics version="1.1" xmlns:xsi="http://www.w3.org/2001/XMLSchema-instance" xsi:noNamespaceSchemaLocation="http://sumo.dlr.de/xsd/tllogic_file.xsd">
	<tlLogic id="intersection_1_1" offset="0" programID="0" type="static">
		<phase duration="30" state="GGGrrrrrrGGGGGGrrrGGGrrrrrrGGGGGGrrr"/>
		<phase duration="5" state="rrrrrrrrrrrrrrrrrrrrrrrrrrrrrrrrrrrr"/>
		<phase duration="30" state="GGGGGGrrrGGGrrrrrrGGGGGGrrrGGGrrrrrr"/>
		<phase duration="5" state="rrrrrrrrrrrrrrrrrrrrrrrrrrrrrrrrrrrr"/>
		<phase duration="30" state="GGGrrrrrrGGGrrrGGGGGGrrrrrrGGGrrrGGG"/>
		<phase duration="5" state="rrrrrrrrrrrrrrrrrrrrrrrrrrrrrrrrrrrr"/>
		<phase duration="30" state="GGGrrrGGGGGGrrrrrrGGGrrrGGGGGGrrrrrr"/>
		<phase duration="5" state="rrrrrrrrrrrrrrrrrrrrrrrrrrrrrrrrrrrr"/>
		<phase duration="30" state="GGGrrrrrrGGGrrrrrrGGGrrrrrrGGGGGGGGG"/>
		<phase duration="5" state="rrrrrrrrrrrrrrrrrrrrrrrrrrrrrrrrrrrr"/>
		<phase duration="30" state="GGGrrrrrrGGGGGGGGGGGGrrrrrrGGGrrrrrr"/>
		<phase duration="5" state="rrrrrrrrrrrrrrrrrrrrrrrrrrrrrrrrrrrr"/>
		<phase duration="30" state="GGGrrrrrrGGGrrrrrrGGGGGGGGGGGGrrrrrr"/>
		<phase duration="5" state="rrrrrrrrrrrrrrrrrrrrrrrrrrrrrrrrrrrr"/>
		<phase duration="30" state="GGGGGGGGGGGGrrrrrrGGGrrrrrrGGGrrrrrr"/>
		<phase duration="5" state="rrrrrrrrrrrrrrrrrrrrrrrrrrrrrrrrrrrr"/>
	</tlLogic>
	<tlLogic id="intersection_1_2" offset="0" programID="0" type="static">
		<phase duration="30" state="GGGrrrrrrGGGGGGrrrGGGrrrrrrGGGGGGrrr"/>
		<phase duration="5" state="rrrrrrrrrrrrrrrrrrrrrrrrrrrrrrrrrrrr"/>
		<phase duration="30" state="GGGGGGrrrGGGrrrrrrGGGGGGrrrGGGrrrrrr"/>
		<phase duration="5" state="rrrrrrrrrrrrrrrrrrrrrrrrrrrrrrrrrrrr"/>
		<phase duration="30" state="GGGrrrrrrGGGrrrGGGGGGrrrrrrGGGrrrGGG"/>
		<phase duration="5" state="rrrrrrrrrrrrrrrrrrrrrrrrrrrrrrrrrrrr"/>
		<phase duration="30" state="GGGrrrGGGGGGrrrrrrGGGrrrGGGGGGrrrrrr"/>
		<phase duration="5" state="rrrrrrrrrrrrrrrrrrrrrrrrrrrrrrrrrrrr"/>
		<phase duration="30" state="GGGrrrrrrGGGrrrrrrGGGrrrrrrGGGGGGGGG"/>
		<phase duration="5" state="rrrrrrrrrrrrrrrrrrrrrrrrrrrrrrrrrrrr"/>
		<phase duration="30" state="GGGrrrrrrGGGGGGGGGGGGrrrrrrGGGrrrrrr"/>
		<phase duration="5" state="rrrrrrrrrrrrrrrrrrrrrrrrrrrrrrrrrrrr"/>
		<phase duration="30" state="GGGrrrrrrGGGrrrrrrGGGGGGGGGGGGrrrrrr"/>
		<phase duration="5" state="rrrrrrrrrrrrrrrrrrrrrrrrrrrrrrrrrrrr"/>
		<phase duration="30" state="GGGGGGGGGGGGrrrrrrGGGrrrrrrGGGrrrrrr"/>
		<phase duration="5" state="rrrrrrrrrrrrrrrrrrrrrrrrrrrrrrrrrrrr"/>
	</tlLogic>
	<tlLogic id="intersection_1_3" offset="0" programID="0" type="static">
		<phase duration="30" state="GGGrrrrrrGGGGGGrrrGGGrrrrrrGGGGGGrrr"/>
		<phase duration="5" state="rrrrrrrrrrrrrrrrrrrrrrrrrrrrrrrrrrrr"/>
		<phase duration="30" state="GGGGGGrrrGGGrrrrrrGGGGGGrrrGGGrrrrrr"/>
		<phase duration="5" state="rrrrrrrrrrrrrrrrrrrrrrrrrrrrrrrrrrrr"/>
		<phase duration="30" state="GGGrrrrrrGGGrrrGGGGGGrrrrrrGGGrrrGGG"/>
		<phase duration="5" state="rrrrrrrrrrrrrrrrrrrrrrrrrrrrrrrrrrrr"/>
		<phase duration="30" state="GGGrrrGGGGGGrrrrrrGGGrrrGGGGGGrrrrrr"/>
		<phase duration="5" state="rrrrrrrrrrrrrrrrrrrrrrrrrrrrrrrrrrrr"/>
		<phase duration="30" state="GGGrrrrrrGGGrrrrrrGGGrrrrrrGGGGGGGGG"/>
		<phase duration="5" state="rrrrrrrrrrrrrrrrrrrrrrrrrrrrrrrrrrrr"/>
		<phase duration="30" state="GGGrrrrrrGGGGGGGGGGGGrrrrrrGGGrrrrrr"/>
		<phase duration="5" state="rrrrrrrrrrrrrrrrrrrrrrrrrrrrrrrrrrrr"/>
		<phase duration="30" state="GGGrrrrrrGGGrrrrrrGGGGGGGGGGGGrrrrrr"/>
		<phase duration="5" state="rrrrrrrrrrrrrrrrrrrrrrrrrrrrrrrrrrrr"/>
		<phase duration="30" state="GGGGGGGGGGGGrrrrrrGGGrrrrrrGGGrrrrrr"/>
		<phase duration="5" state="rrrrrrrrrrrrrrrrrrrrrrrrrrrrrrrrrrrr"/>
	</tlLogic>
	<tlLogic id="intersection_1_4" offset="0" programID="0" type="static">
		<phase duration="30" state="GGGrrrrrrGGGGGGrrrGGGrrrrrrGGGGGGrrr"/>
		<phase duration="5" state="rrrrrrrrrrrrrrrrrrrrrrrrrrrrrrrrrrrr"/>
		<phase duration="30" state="GGGGGGrrrGGGrrrrrrGGGGGGrrrGGGrrrrrr"/>
		<phase duration="5" state="rrrrrrrrrrrrrrrrrrrrrrrrrrrrrrrrrrrr"/>
		<phase duration="30" state="GGGrrrrrrGGGrrrGGGGGGrrrrrrGGGrrrGGG"/>
		<phase duration="5" state="rrrrrrrrrrrrrrrrrrrrrrrrrrrrrrrrrrrr"/>
		<phase duration="30" state="GGGrrrGGGGGGrrrrrrGGGrrrGGGGGGrrrrrr"/>
		<phase duration="5" state="rrrrrrrrrrrrrrrrrrrrrrrrrrrrrrrrrrrr"/>
		<phase duration="30" state="GGGrrrrrrGGGrrrrrrGGGrrrrrrGGGGGGGGG"/>
		<phase duration="5" state="rrrrrrrrrrrrrrrrrrrrrrrrrrrrrrrrrrrr"/>
		<phase duration="30" state="GGGrrrrrrGGGGGGGGGGGGrrrrrrGGGrrrrrr"/>
		<phase duration="5" state="rrrrrrrrrrrrrrrrrrrrrrrrrrrrrrrrrrrr"/>
		<phase duration="30" state="GGGrrrrrrGGGrrrrrrGGGGGGGGGGGGrrrrrr"/>
		<phase duration="5" state="rrrrrrrrrrrrrrrrrrrrrrrrrrrrrrrrrrrr"/>
		<phase duration="30" state="GGGGGGGGGGGGrrrrrrGGGrrrrrrGGGrrrrrr"/>
		<phase duration="5" state="rrrrrrrrrrrrrrrrrrrrrrrrrrrrrrrrrrrr"/>
	</tlLogic>
	<tlLogic id="intersection_1_5" offset="0" programID="0" type="static">
		<phase duration="30" state="GGGrrrrrrGGGGGGrrrGGGrrrrrrGGGGGGrrr"/>
		<phase duration="5" state="rrrrrrrrrrrrrrrrrrrrrrrrrrrrrrrrrrrr"/>
		<phase duration="30" state="GGGGGGrrrGGGrrrrrrGGGGGGrrrGGGrrrrrr"/>
		<phase duration="5" state="rrrrrrrrrrrrrrrrrrrrrrrrrrrrrrrrrrrr"/>
		<phase duration="30" state="GGGrrrrrrGGGrrrGGGGGGrrrrrrGGGrrrGGG"/>
		<phase duration="5" state="rrrrrrrrrrrrrrrrrrrrrrrrrrrrrrrrrrrr"/>
		<phase duration="30" state="GGGrrrGGGGGGrrrrrrGGGrrrGGGGGGrrrrrr"/>
		<phase duration="5" state="rrrrrrrrrrrrrrrrrrrrrrrrrrrrrrrrrrrr"/>
		<phase duration="30" state="GGGrrrrrrGGGrrrrrrGGGrrrrrrGGGGGGGGG"/>
		<phase duration="5" state="rrrrrrrrrrrrrrrrrrrrrrrrrrrrrrrrrrrr"/>
		<phase duration="30" state="GGGrrrrrrGGGGGGGGGGGGrrrrrrGGGrrrrrr"/>
		<phase duration="5" state="rrrrrrrrrrrrrrrrrrrrrrrrrrrrrrrrrrrr"/>
		<phase duration="30" state="GGGrrrrrrGGGrrrrrrGGGGGGGGGGGGrrrrrr"/>
		<phase duration="5" state="rrrrrrrrrrrrrrrrrrrrrrrrrrrrrrrrrrrr"/>
		<phase duration="30" state="GGGGGGGGGGGGrrrrrrGGGrrrrrrGGGrrrrrr"/>
		<phase duration="5" state="rrrrrrrrrrrrrrrrrrrrrrrrrrrrrrrrrrrr"/>
	</tlLogic>
	<tlLogic id="intersection_1_6" offset="0" programID="0" type="static">
		<phase duration="30" state="GGGrrrrrrGGGGGGrrrGGGrrrrrrGGGGGGrrr"/>
		<phase duration="5" state="rrrrrrrrrrrrrrrrrrrrrrrrrrrrrrrrrrrr"/>
		<phase duration="30" state="GGGGGGrrrGGGrrrrrrGGGGGGrrrGGGrrrrrr"/>
		<phase duration="5" state="rrrrrrrrrrrrrrrrrrrrrrrrrrrrrrrrrrrr"/>
		<phase duration="30" state="GGGrrrrrrGGGrrrGGGGGGrrrrrrGGGrrrGGG"/>
		<phase duration="5" state="rrrrrrrrrrrrrrrrrrrrrrrrrrrrrrrrrrrr"/>
		<phase duration="30" state="GGGrrrGGGGGGrrrrrrGGGrrrGGGGGGrrrrrr"/>
		<phase duration="5" state="rrrrrrrrrrrrrrrrrrrrrrrrrrrrrrrrrrrr"/>
		<phase duration="30" state="GGGrrrrrrGGGrrrrrrGGGrrrrrrGGGGGGGGG"/>
		<phase duration="5" state="rrrrrrrrrrrrrrrrrrrrrrrrrrrrrrrrrrrr"/>
		<phase duration="30" state="GGGrrrrrrGGGGGGGGGGGGrrrrrrGGGrrrrrr"/>
		<phase duration="5" state="rrrrrrrrrrrrrrrrrrrrrrrrrrrrrrrrrrrr"/>
		<phase duration="30" state="GGGrrrrrrGGGrrrrrrGGGGGGGGGGGGrrrrrr"/>
		<phase duration="5" state="rrrrrrrrrrrrrrrrrrrrrrrrrrrrrrrrrrrr"/>
		<phase duration="30" state="GGGGGGGGGGGGrrrrrrGGGrrrrrrGGGrrrrrr"/>
		<phase duration="5" state="rrrrrrrrrrrrrrrrrrrrrrrrrrrrrrrrrrrr"/>
	</tlLogic>
	<tlLogic id="intersection_1_7" offset="0" programID="0" type="static">
		<phase duration="30" state="GGGrrrrrrGGGGGGrrrGGGrrrrrrGGGGGGrrr"/>
		<phase duration="5" state="rrrrrrrrrrrrrrrrrrrrrrrrrrrrrrrrrrrr"/>
		<phase duration="30" state="GGGGGGrrrGGGrrrrrrGGGGGGrrrGGGrrrrrr"/>
		<phase duration="5" state="rrrrrrrrrrrrrrrrrrrrrrrrrrrrrrrrrrrr"/>
		<phase duration="30" state="GGGrrrrrrGGGrrrGGGGGGrrrrrrGGGrrrGGG"/>
		<phase duration="5" state="rrrrrrrrrrrrrrrrrrrrrrrrrrrrrrrrrrrr"/>
		<phase duration="30" state="GGGrrrGGGGGGrrrrrrGGGrrrGGGGGGrrrrrr"/>
		<phase duration="5" state="rrrrrrrrrrrrrrrrrrrrrrrrrrrrrrrrrrrr"/>
		<phase duration="30" state="GGGrrrrrrGGGrrrrrrGGGrrrrrrGGGGGGGGG"/>
		<phase duration="5" state="rrrrrrrrrrrrrrrrrrrrrrrrrrrrrrrrrrrr"/>
		<phase duration="30" state="GGGrrrrrrGGGGGGGGGGGGrrrrrrGGGrrrrrr"/>
		<phase duration="5" state="rrrrrrrrrrrrrrrrrrrrrrrrrrrrrrrrrrrr"/>
		<phase duration="30" state="GGGrrrrrrGGGrrrrrrGGGGGGGGGGGGrrrrrr"/>
		<phase duration="5" state="rrrrrrrrrrrrrrrrrrrrrrrrrrrrrrrrrrrr"/>
		<phase duration="30" state="GGGGGGGGGGGGrrrrrrGGGrrrrrrGGGrrrrrr"/>
		<phase duration="5" state="rrrrrrrrrrrrrrrrrrrrrrrrrrrrrrrrrrrr"/>
	</tlLogic>
	<tlLogic id="intersection_1_8" offset="0" programID="0" type="static">
		<phase duration="30" state="GGGrrrrrrGGGGGGrrrGGGrrrrrrGGGGGGrrr"/>
		<phase duration="5" state="rrrrrrrrrrrrrrrrrrrrrrrrrrrrrrrrrrrr"/>
		<phase duration="30" state="GGGGGGrrrGGGrrrrrrGGGGGGrrrGGGrrrrrr"/>
		<phase duration="5" state="rrrrrrrrrrrrrrrrrrrrrrrrrrrrrrrrrrrr"/>
		<phase duration="30" state="GGGrrrrrrGGGrrrGGGGGGrrrrrrGGGrrrGGG"/>
		<phase duration="5" state="rrrrrrrrrrrrrrrrrrrrrrrrrrrrrrrrrrrr"/>
		<phase duration="30" state="GGGrrrGGGGGGrrrrrrGGGrrrGGGGGGrrrrrr"/>
		<phase duration="5" state="rrrrrrrrrrrrrrrrrrrrrrrrrrrrrrrrrrrr"/>
		<phase duration="30" state="GGGrrrrrrGGGrrrrrrGGGrrrrrrGGGGGGGGG"/>
		<phase duration="5" state="rrrrrrrrrrrrrrrrrrrrrrrrrrrrrrrrrrrr"/>
		<phase duration="30" state="GGGrrrrrrGGGGGGGGGGGGrrrrrrGGGrrrrrr"/>
		<phase duration="5" state="rrrrrrrrrrrrrrrrrrrrrrrrrrrrrrrrrrrr"/>
		<phase duration="30" state="GGGrrrrrrGGGrrrrrrGGGGGGGGGGGGrrrrrr"/>
		<phase duration="5" state="rrrrrrrrrrrrrrrrrrrrrrrrrrrrrrrrrrrr"/>
		<phase duration="30" state="GGGGGGGGGGGGrrrrrrGGGrrrrrrGGGrrrrrr"/>
		<phase duration="5" state="rrrrrrrrrrrrrrrrrrrrrrrrrrrrrrrrrrrr"/>
	</tlLogic>
	<tlLogic id="intersection_1_9" offset="0" programID="0" type="static">
		<phase duration="30" state="GGGrrrrrrGGGGGGrrrGGGrrrrrrGGGGGGrrr"/>
		<phase duration="5" state="rrrrrrrrrrrrrrrrrrrrrrrrrrrrrrrrrrrr"/>
		<phase duration="30" state="GGGGGGrrrGGGrrrrrrGGGGGGrrrGGGrrrrrr"/>
		<phase duration="5" state="rrrrrrrrrrrrrrrrrrrrrrrrrrrrrrrrrrrr"/>
		<phase duration="30" state="GGGrrrrrrGGGrrrGGGGGGrrrrrrGGGrrrGGG"/>
		<phase duration="5" state="rrrrrrrrrrrrrrrrrrrrrrrrrrrrrrrrrrrr"/>
		<phase duration="30" state="GGGrrrGGGGGGrrrrrrGGGrrrGGGGGGrrrrrr"/>
		<phase duration="5" state="rrrrrrrrrrrrrrrrrrrrrrrrrrrrrrrrrrrr"/>
		<phase duration="30" state="GGGrrrrrrGGGrrrrrrGGGrrrrrrGGGGGGGGG"/>
		<phase duration="5" state="rrrrrrrrrrrrrrrrrrrrrrrrrrrrrrrrrrrr"/>
		<phase duration="30" state="GGGrrrrrrGGGGGGGGGGGGrrrrrrGGGrrrrrr"/>
		<phase duration="5" state="rrrrrrrrrrrrrrrrrrrrrrrrrrrrrrrrrrrr"/>
		<phase duration="30" state="GGGrrrrrrGGGrrrrrrGGGGGGGGGGGGrrrrrr"/>
		<phase duration="5" state="rrrrrrrrrrrrrrrrrrrrrrrrrrrrrrrrrrrr"/>
		<phase duration="30" state="GGGGGGGGGGGGrrrrrrGGGrrrrrrGGGrrrrrr"/>
		<phase duration="5" state="rrrrrrrrrrrrrrrrrrrrrrrrrrrrrrrrrrrr"/>
	</tlLogic>
	<tlLogic id="intersection_1_10" offset="0" programID="0" type="static">
		<phase duration="30" state="GGGrrrrrrGGGGGGrrrGGGrrrrrrGGGGGGrrr"/>
		<phase duration="5" state="rrrrrrrrrrrrrrrrrrrrrrrrrrrrrrrrrrrr"/>
		<phase duration="30" state="GGGGGGrrrGGGrrrrrrGGGGGGrrrGGGrrrrrr"/>
		<phase duration="5" state="rrrrrrrrrrrrrrrrrrrrrrrrrrrrrrrrrrrr"/>
		<phase duration="30" state="GGGrrrrrrGGGrrrGGGGGGrrrrrrGGGrrrGGG"/>
		<phase duration="5" state="rrrrrrrrrrrrrrrrrrrrrrrrrrrrrrrrrrrr"/>
		<phase duration="30" state="GGGrrrGGGGGGrrrrrrGGGrrrGGGGGGrrrrrr"/>
		<phase duration="5" state="rrrrrrrrrrrrrrrrrrrrrrrrrrrrrrrrrrrr"/>
		<phase duration="30" state="GGGrrrrrrGGGrrrrrrGGGrrrrrrGGGGGGGGG"/>
		<phase duration="5" state="rrrrrrrrrrrrrrrrrrrrrrrrrrrrrrrrrrrr"/>
		<phase duration="30" state="GGGrrrrrrGGGGGGGGGGGGrrrrrrGGGrrrrrr"/>
		<phase duration="5" state="rrrrrrrrrrrrrrrrrrrrrrrrrrrrrrrrrrrr"/>
		<phase duration="30" state="GGGrrrrrrGGGrrrrrrGGGGGGGGGGGGrrrrrr"/>
		<phase duration="5" state="rrrrrrrrrrrrrrrrrrrrrrrrrrrrrrrrrrrr"/>
		<phase duration="30" state="GGGGGGGGGGGGrrrrrrGGGrrrrrrGGGrrrrrr"/>
		<phase duration="5" state="rrrrrrrrrrrrrrrrrrrrrrrrrrrrrrrrrrrr"/>
	</tlLogic>
	<tlLogic id="intersection_1_11" offset="0" programID="0" type="static">
		<phase duration="30" state="GGGrrrrrrGGGGGGrrrGGGrrrrrrGGGGGGrrr"/>
		<phase duration="5" state="rrrrrrrrrrrrrrrrrrrrrrrrrrrrrrrrrrrr"/>
		<phase duration="30" state="GGGGGGrrrGGGrrrrrrGGGGGGrrrGGGrrrrrr"/>
		<phase duration="5" state="rrrrrrrrrrrrrrrrrrrrrrrrrrrrrrrrrrrr"/>
		<phase duration="30" state="GGGrrrrrrGGGrrrGGGGGGrrrrrrGGGrrrGGG"/>
		<phase duration="5" state="rrrrrrrrrrrrrrrrrrrrrrrrrrrrrrrrrrrr"/>
		<phase duration="30" state="GGGrrrGGGGGGrrrrrrGGGrrrGGGGGGrrrrrr"/>
		<phase duration="5" state="rrrrrrrrrrrrrrrrrrrrrrrrrrrrrrrrrrrr"/>
		<phase duration="30" state="GGGrrrrrrGGGrrrrrrGGGrrrrrrGGGGGGGGG"/>
		<phase duration="5" state="rrrrrrrrrrrrrrrrrrrrrrrrrrrrrrrrrrrr"/>
		<phase duration="30" state="GGGrrrrrrGGGGGGGGGGGGrrrrrrGGGrrrrrr"/>
		<phase duration="5" state="rrrrrrrrrrrrrrrrrrrrrrrrrrrrrrrrrrrr"/>
		<phase duration="30" state="GGGrrrrrrGGGrrrrrrGGGGGGGGGGGGrrrrrr"/>
		<phase duration="5" state="rrrrrrrrrrrrrrrrrrrrrrrrrrrrrrrrrrrr"/>
		<phase duration="30" state="GGGGGGGGGGGGrrrrrrGGGrrrrrrGGGrrrrrr"/>
		<phase duration="5" state="rrrrrrrrrrrrrrrrrrrrrrrrrrrrrrrrrrrr"/>
	</tlLogic>
	<tlLogic id="intersection_1_12" offset="0" programID="0" type="static">
		<phase duration="30" state="GGGrrrrrrGGGGGGrrrGGGrrrrrrGGGGGGrrr"/>
		<phase duration="5" state="rrrrrrrrrrrrrrrrrrrrrrrrrrrrrrrrrrrr"/>
		<phase duration="30" state="GGGGGGrrrGGGrrrrrrGGGGGGrrrGGGrrrrrr"/>
		<phase duration="5" state="rrrrrrrrrrrrrrrrrrrrrrrrrrrrrrrrrrrr"/>
		<phase duration="30" state="GGGrrrrrrGGGrrrGGGGGGrrrrrrGGGrrrGGG"/>
		<phase duration="5" state="rrrrrrrrrrrrrrrrrrrrrrrrrrrrrrrrrrrr"/>
		<phase duration="30" state="GGGrrrGGGGGGrrrrrrGGGrrrGGGGGGrrrrrr"/>
		<phase duration="5" state="rrrrrrrrrrrrrrrrrrrrrrrrrrrrrrrrrrrr"/>
		<phase duration="30" state="GGGrrrrrrGGGrrrrrrGGGrrrrrrGGGGGGGGG"/>
		<phase duration="5" state="rrrrrrrrrrrrrrrrrrrrrrrrrrrrrrrrrrrr"/>
		<phase duration="30" state="GGGrrrrrrGGGGGGGGGGGGrrrrrrGGGrrrrrr"/>
		<phase duration="5" state="rrrrrrrrrrrrrrrrrrrrrrrrrrrrrrrrrrrr"/>
		<phase duration="30" state="GGGrrrrrrGGGrrrrrrGGGGGGGGGGGGrrrrrr"/>
		<phase duration="5" state="rrrrrrrrrrrrrrrrrrrrrrrrrrrrrrrrrrrr"/>
		<phase duration="30" state="GGGGGGGGGGGGrrrrrrGGGrrrrrrGGGrrrrrr"/>
		<phase duration="5" state="rrrrrrrrrrrrrrrrrrrrrrrrrrrrrrrrrrrr"/>
	</tlLogic>
	<tlLogic id="intersection_1_13" offset="0" programID="0" type="static">
		<phase duration="30" state="GGGrrrrrrGGGGGGrrrGGGrrrrrrGGGGGGrrr"/>
		<phase duration="5" state="rrrrrrrrrrrrrrrrrrrrrrrrrrrrrrrrrrrr"/>
		<phase duration="30" state="GGGGGGrrrGGGrrrrrrGGGGGGrrrGGGrrrrrr"/>
		<phase duration="5" state="rrrrrrrrrrrrrrrrrrrrrrrrrrrrrrrrrrrr"/>
		<phase duration="30" state="GGGrrrrrrGGGrrrGGGGGGrrrrrrGGGrrrGGG"/>
		<phase duration="5" state="rrrrrrrrrrrrrrrrrrrrrrrrrrrrrrrrrrrr"/>
		<phase duration="30" state="GGGrrrGGGGGGrrrrrrGGGrrrGGGGGGrrrrrr"/>
		<phase duration="5" state="rrrrrrrrrrrrrrrrrrrrrrrrrrrrrrrrrrrr"/>
		<phase duration="30" state="GGGrrrrrrGGGrrrrrrGGGrrrrrrGGGGGGGGG"/>
		<phase duration="5" state="rrrrrrrrrrrrrrrrrrrrrrrrrrrrrrrrrrrr"/>
		<phase duration="30" state="GGGrrrrrrGGGGGGGGGGGGrrrrrrGGGrrrrrr"/>
		<phase duration="5" state="rrrrrrrrrrrrrrrrrrrrrrrrrrrrrrrrrrrr"/>
		<phase duration="30" state="GGGrrrrrrGGGrrrrrrGGGGGGGGGGGGrrrrrr"/>
		<phase duration="5" state="rrrrrrrrrrrrrrrrrrrrrrrrrrrrrrrrrrrr"/>
		<phase duration="30" state="GGGGGGGGGGGGrrrrrrGGGrrrrrrGGGrrrrrr"/>
		<phase duration="5" state="rrrrrrrrrrrrrrrrrrrrrrrrrrrrrrrrrrrr"/>
	</tlLogic>
	<tlLogic id="intersection_1_14" offset="0" programID="0" type="static">
		<phase duration="30" state="GGGrrrrrrGGGGGGrrrGGGrrrrrrGGGGGGrrr"/>
		<phase duration="5" state="rrrrrrrrrrrrrrrrrrrrrrrrrrrrrrrrrrrr"/>
		<phase duration="30" state="GGGGGGrrrGGGrrrrrrGGGGGGrrrGGGrrrrrr"/>
		<phase duration="5" state="rrrrrrrrrrrrrrrrrrrrrrrrrrrrrrrrrrrr"/>
		<phase duration="30" state="GGGrrrrrrGGGrrrGGGGGGrrrrrrGGGrrrGGG"/>
		<phase duration="5" state="rrrrrrrrrrrrrrrrrrrrrrrrrrrrrrrrrrrr"/>
		<phase duration="30" state="GGGrrrGGGGGGrrrrrrGGGrrrGGGGGGrrrrrr"/>
		<phase duration="5" state="rrrrrrrrrrrrrrrrrrrrrrrrrrrrrrrrrrrr"/>
		<phase duration="30" state="GGGrrrrrrGGGrrrrrrGGGrrrrrrGGGGGGGGG"/>
		<phase duration="5" state="rrrrrrrrrrrrrrrrrrrrrrrrrrrrrrrrrrrr"/>
		<phase duration="30" state="GGGrrrrrrGGGGGGGGGGGGrrrrrrGGGrrrrrr"/>
		<phase duration="5" state="rrrrrrrrrrrrrrrrrrrrrrrrrrrrrrrrrrrr"/>
		<phase duration="30" state="GGGrrrrrrGGGrrrrrrGGGGGGGGGGGGrrrrrr"/>
		<phase duration="5" state="rrrrrrrrrrrrrrrrrrrrrrrrrrrrrrrrrrrr"/>
		<phase duration="30" state="GGGGGGGGGGGGrrrrrrGGGrrrrrrGGGrrrrrr"/>
		<phase duration="5" state="rrrrrrrrrrrrrrrrrrrrrrrrrrrrrrrrrrrr"/>
	</tlLogic>
	<tlLogic id="intersection_1_15" offset="0" programID="0" type="static">
		<phase duration="30" state="GGGrrrrrrGGGGGGrrrGGGrrrrrrGGGGGGrrr"/>
		<phase duration="5" state="rrrrrrrrrrrrrrrrrrrrrrrrrrrrrrrrrrrr"/>
		<phase duration="30" state="GGGGGGrrrGGGrrrrrrGGGGGGrrrGGGrrrrrr"/>
		<phase duration="5" state="rrrrrrrrrrrrrrrrrrrrrrrrrrrrrrrrrrrr"/>
		<phase duration="30" state="GGGrrrrrrGGGrrrGGGGGGrrrrrrGGGrrrGGG"/>
		<phase duration="5" state="rrrrrrrrrrrrrrrrrrrrrrrrrrrrrrrrrrrr"/>
		<phase duration="30" state="GGGrrrGGGGGGrrrrrrGGGrrrGGGGGGrrrrrr"/>
		<phase duration="5" state="rrrrrrrrrrrrrrrrrrrrrrrrrrrrrrrrrrrr"/>
		<phase duration="30" state="GGGrrrrrrGGGrrrrrrGGGrrrrrrGGGGGGGGG"/>
		<phase duration="5" state="rrrrrrrrrrrrrrrrrrrrrrrrrrrrrrrrrrrr"/>
		<phase duration="30" state="GGGrrrrrrGGGGGGGGGGGGrrrrrrGGGrrrrrr"/>
		<phase duration="5" state="rrrrrrrrrrrrrrrrrrrrrrrrrrrrrrrrrrrr"/>
		<phase duration="30" state="GGGrrrrrrGGGrrrrrrGGGGGGGGGGGGrrrrrr"/>
		<phase duration="5" state="rrrrrrrrrrrrrrrrrrrrrrrrrrrrrrrrrrrr"/>
		<phase duration="30" state="GGGGGGGGGGGGrrrrrrGGGrrrrrrGGGrrrrrr"/>
		<phase duration="5" state="rrrrrrrrrrrrrrrrrrrrrrrrrrrrrrrrrrrr"/>
	</tlLogic>
	<tlLogic id="intersection_1_16" offset="0" programID="0" type="static">
		<phase duration="30" state="GGGrrrrrrGGGGGGrrrGGGrrrrrrGGGGGGrrr"/>
		<phase duration="5" state="rrrrrrrrrrrrrrrrrrrrrrrrrrrrrrrrrrrr"/>
		<phase duration="30" state="GGGGGGrrrGGGrrrrrrGGGGGGrrrGGGrrrrrr"/>
		<phase duration="5" state="rrrrrrrrrrrrrrrrrrrrrrrrrrrrrrrrrrrr"/>
		<phase duration="30" state="GGGrrrrrrGGGrrrGGGGGGrrrrrrGGGrrrGGG"/>
		<phase duration="5" state="rrrrrrrrrrrrrrrrrrrrrrrrrrrrrrrrrrrr"/>
		<phase duration="30" state="GGGrrrGGGGGGrrrrrrGGGrrrGGGGGGrrrrrr"/>
		<phase duration="5" state="rrrrrrrrrrrrrrrrrrrrrrrrrrrrrrrrrrrr"/>
		<phase duration="30" state="GGGrrrrrrGGGrrrrrrGGGrrrrrrGGGGGGGGG"/>
		<phase duration="5" state="rrrrrrrrrrrrrrrrrrrrrrrrrrrrrrrrrrrr"/>
		<phase duration="30" state="GGGrrrrrrGGGGGGGGGGGGrrrrrrGGGrrrrrr"/>
		<phase duration="5" state="rrrrrrrrrrrrrrrrrrrrrrrrrrrrrrrrrrrr"/>
		<phase duration="30" state="GGGrrrrrrGGGrrrrrrGGGGGGGGGGGGrrrrrr"/>
		<phase duration="5" state="rrrrrrrrrrrrrrrrrrrrrrrrrrrrrrrrrrrr"/>
		<phase duration="30" state="GGGGGGGGGGGGrrrrrrGGGrrrrrrGGGrrrrrr"/>
		<phase duration="5" state="rrrrrrrrrrrrrrrrrrrrrrrrrrrrrrrrrrrr"/>
	</tlLogic>
	<tlLogic id="intersection_1_17" offset="0" programID="0" type="static">
		<phase duration="30" state="GGGrrrrrrGGGGGGrrrGGGrrrrrrGGGGGGrrr"/>
		<phase duration="5" state="rrrrrrrrrrrrrrrrrrrrrrrrrrrrrrrrrrrr"/>
		<phase duration="30" state="GGGGGGrrrGGGrrrrrrGGGGGGrrrGGGrrrrrr"/>
		<phase duration="5" state="rrrrrrrrrrrrrrrrrrrrrrrrrrrrrrrrrrrr"/>
		<phase duration="30" state="GGGrrrrrrGGGrrrGGGGGGrrrrrrGGGrrrGGG"/>
		<phase duration="5" state="rrrrrrrrrrrrrrrrrrrrrrrrrrrrrrrrrrrr"/>
		<phase duration="30" state="GGGrrrGGGGGGrrrrrrGGGrrrGGGGGGrrrrrr"/>
		<phase duration="5" state="rrrrrrrrrrrrrrrrrrrrrrrrrrrrrrrrrrrr"/>
		<phase duration="30" state="GGGrrrrrrGGGrrrrrrGGGrrrrrrGGGGGGGGG"/>
		<phase duration="5" state="rrrrrrrrrrrrrrrrrrrrrrrrrrrrrrrrrrrr"/>
		<phase duration="30" state="GGGrrrrrrGGGGGGGGGGGGrrrrrrGGGrrrrrr"/>
		<phase duration="5" state="rrrrrrrrrrrrrrrrrrrrrrrrrrrrrrrrrrrr"/>
		<phase duration="30" state="GGGrrrrrrGGGrrrrrrGGGGGGGGGGGGrrrrrr"/>
		<phase duration="5" state="rrrrrrrrrrrrrrrrrrrrrrrrrrrrrrrrrrrr"/>
		<phase duration="30" state="GGGGGGGGGGGGrrrrrrGGGrrrrrrGGGrrrrrr"/>
		<phase duration="5" state="rrrrrrrrrrrrrrrrrrrrrrrrrrrrrrrrrrrr"/>
	</tlLogic>
	<tlLogic id="intersection_1_18" offset="0" programID="0" type="static">
		<phase duration="30" state="GGGrrrrrrGGGGGGrrrGGGrrrrrrGGGGGGrrr"/>
		<phase duration="5" state="rrrrrrrrrrrrrrrrrrrrrrrrrrrrrrrrrrrr"/>
		<phase duration="30" state="GGGGGGrrrGGGrrrrrrGGGGGGrrrGGGrrrrrr"/>
		<phase duration="5" state="rrrrrrrrrrrrrrrrrrrrrrrrrrrrrrrrrrrr"/>
		<phase duration="30" state="GGGrrrrrrGGGrrrGGGGGGrrrrrrGGGrrrGGG"/>
		<phase duration="5" state="rrrrrrrrrrrrrrrrrrrrrrrrrrrrrrrrrrrr"/>
		<phase duration="30" state="GGGrrrGGGGGGrrrrrrGGGrrrGGGGGGrrrrrr"/>
		<phase duration="5" state="rrrrrrrrrrrrrrrrrrrrrrrrrrrrrrrrrrrr"/>
		<phase duration="30" state="GGGrrrrrrGGGrrrrrrGGGrrrrrrGGGGGGGGG"/>
		<phase duration="5" state="rrrrrrrrrrrrrrrrrrrrrrrrrrrrrrrrrrrr"/>
		<phase duration="30" state="GGGrrrrrrGGGGGGGGGGGGrrrrrrGGGrrrrrr"/>
		<phase duration="5" state="rrrrrrrrrrrrrrrrrrrrrrrrrrrrrrrrrrrr"/>
		<phase duration="30" state="GGGrrrrrrGGGrrrrrrGGGGGGGGGGGGrrrrrr"/>
		<phase duration="5" state="rrrrrrrrrrrrrrrrrrrrrrrrrrrrrrrrrrrr"/>
		<phase duration="30" state="GGGGGGGGGGGGrrrrrrGGGrrrrrrGGGrrrrrr"/>
		<phase duration="5" state="rrrrrrrrrrrrrrrrrrrrrrrrrrrrrrrrrrrr"/>
	</tlLogic>
	<tlLogic id="intersection_1_19" offset="0" programID="0" type="static">
		<phase duration="30" state="GGGrrrrrrGGGGGGrrrGGGrrrrrrGGGGGGrrr"/>
		<phase duration="5" state="rrrrrrrrrrrrrrrrrrrrrrrrrrrrrrrrrrrr"/>
		<phase duration="30" state="GGGGGGrrrGGGrrrrrrGGGGGGrrrGGGrrrrrr"/>
		<phase duration="5" state="rrrrrrrrrrrrrrrrrrrrrrrrrrrrrrrrrrrr"/>
		<phase duration="30" state="GGGrrrrrrGGGrrrGGGGGGrrrrrrGGGrrrGGG"/>
		<phase duration="5" state="rrrrrrrrrrrrrrrrrrrrrrrrrrrrrrrrrrrr"/>
		<phase duration="30" state="GGGrrrGGGGGGrrrrrrGGGrrrGGGGGGrrrrrr"/>
		<phase duration="5" state="rrrrrrrrrrrrrrrrrrrrrrrrrrrrrrrrrrrr"/>
		<phase duration="30" state="GGGrrrrrrGGGrrrrrrGGGrrrrrrGGGGGGGGG"/>
		<phase duration="5" state="rrrrrrrrrrrrrrrrrrrrrrrrrrrrrrrrrrrr"/>
		<phase duration="30" state="GGGrrrrrrGGGGGGGGGGGGrrrrrrGGGrrrrrr"/>
		<phase duration="5" state="rrrrrrrrrrrrrrrrrrrrrrrrrrrrrrrrrrrr"/>
		<phase duration="30" state="GGGrrrrrrGGGrrrrrrGGGGGGGGGGGGrrrrrr"/>
		<phase duration="5" state="rrrrrrrrrrrrrrrrrrrrrrrrrrrrrrrrrrrr"/>
		<phase duration="30" state="GGGGGGGGGGGGrrrrrrGGGrrrrrrGGGrrrrrr"/>
		<phase duration="5" state="rrrrrrrrrrrrrrrrrrrrrrrrrrrrrrrrrrrr"/>
	</tlLogic>
	<tlLogic id="intersection_1_20" offset="0" programID="0" type="static">
		<phase duration="30" state="GGGrrrrrrGGGGGGrrrGGGrrrrrrGGGGGGrrr"/>
		<phase duration="5" state="rrrrrrrrrrrrrrrrrrrrrrrrrrrrrrrrrrrr"/>
		<phase duration="30" state="GGGGGGrrrGGGrrrrrrGGGGGGrrrGGGrrrrrr"/>
		<phase duration="5" state="rrrrrrrrrrrrrrrrrrrrrrrrrrrrrrrrrrrr"/>
		<phase duration="30" state="GGGrrrrrrGGGrrrGGGGGGrrrrrrGGGrrrGGG"/>
		<phase duration="5" state="rrrrrrrrrrrrrrrrrrrrrrrrrrrrrrrrrrrr"/>
		<phase duration="30" state="GGGrrrGGGGGGrrrrrrGGGrrrGGGGGGrrrrrr"/>
		<phase duration="5" state="rrrrrrrrrrrrrrrrrrrrrrrrrrrrrrrrrrrr"/>
		<phase duration="30" state="GGGrrrrrrGGGrrrrrrGGGrrrrrrGGGGGGGGG"/>
		<phase duration="5" state="rrrrrrrrrrrrrrrrrrrrrrrrrrrrrrrrrrrr"/>
		<phase duration="30" state="GGGrrrrrrGGGGGGGGGGGGrrrrrrGGGrrrrrr"/>
		<phase duration="5" state="rrrrrrrrrrrrrrrrrrrrrrrrrrrrrrrrrrrr"/>
		<phase duration="30" state="GGGrrrrrrGGGrrrrrrGGGGGGGGGGGGrrrrrr"/>
		<phase duration="5" state="rrrrrrrrrrrrrrrrrrrrrrrrrrrrrrrrrrrr"/>
		<phase duration="30" state="GGGGGGGGGGGGrrrrrrGGGrrrrrrGGGrrrrrr"/>
		<phase duration="5" state="rrrrrrrrrrrrrrrrrrrrrrrrrrrrrrrrrrrr"/>
	</tlLogic>
	<tlLogic id="intersection_1_21" offset="0" programID="0" type="static">
		<phase duration="30" state="GGGrrrrrrGGGGGGrrrGGGrrrrrrGGGGGGrrr"/>
		<phase duration="5" state="rrrrrrrrrrrrrrrrrrrrrrrrrrrrrrrrrrrr"/>
		<phase duration="30" state="GGGGGGrrrGGGrrrrrrGGGGGGrrrGGGrrrrrr"/>
		<phase duration="5" state="rrrrrrrrrrrrrrrrrrrrrrrrrrrrrrrrrrrr"/>
		<phase duration="30" state="GGGrrrrrrGGGrrrGGGGGGrrrrrrGGGrrrGGG"/>
		<phase duration="5" state="rrrrrrrrrrrrrrrrrrrrrrrrrrrrrrrrrrrr"/>
		<phase duration="30" state="GGGrrrGGGGGGrrrrrrGGGrrrGGGGGGrrrrrr"/>
		<phase duration="5" state="rrrrrrrrrrrrrrrrrrrrrrrrrrrrrrrrrrrr"/>
		<phase duration="30" state="GGGrrrrrrGGGrrrrrrGGGrrrrrrGGGGGGGGG"/>
		<phase duration="5" state="rrrrrrrrrrrrrrrrrrrrrrrrrrrrrrrrrrrr"/>
		<phase duration="30" state="GGGrrrrrrGGGGGGGGGGGGrrrrrrGGGrrrrrr"/>
		<phase duration="5" state="rrrrrrrrrrrrrrrrrrrrrrrrrrrrrrrrrrrr"/>
		<phase duration="30" state="GGGrrrrrrGGGrrrrrrGGGGGGGGGGGGrrrrrr"/>
		<phase duration="5" state="rrrrrrrrrrrrrrrrrrrrrrrrrrrrrrrrrrrr"/>
		<phase duration="30" state="GGGGGGGGGGGGrrrrrrGGGrrrrrrGGGrrrrrr"/>
		<phase duration="5" state="rrrrrrrrrrrrrrrrrrrrrrrrrrrrrrrrrrrr"/>
	</tlLogic>
	<tlLogic id="intersection_1_22" offset="0" programID="0" type="static">
		<phase duration="30" state="GGGrrrrrrGGGGGGrrrGGGrrrrrrGGGGGGrrr"/>
		<phase duration="5" state="rrrrrrrrrrrrrrrrrrrrrrrrrrrrrrrrrrrr"/>
		<phase duration="30" state="GGGGGGrrrGGGrrrrrrGGGGGGrrrGGGrrrrrr"/>
		<phase duration="5" state="rrrrrrrrrrrrrrrrrrrrrrrrrrrrrrrrrrrr"/>
		<phase duration="30" state="GGGrrrrrrGGGrrrGGGGGGrrrrrrGGGrrrGGG"/>
		<phase duration="5" state="rrrrrrrrrrrrrrrrrrrrrrrrrrrrrrrrrrrr"/>
		<phase duration="30" state="GGGrrrGGGGGGrrrrrrGGGrrrGGGGGGrrrrrr"/>
		<phase duration="5" state="rrrrrrrrrrrrrrrrrrrrrrrrrrrrrrrrrrrr"/>
		<phase duration="30" state="GGGrrrrrrGGGrrrrrrGGGrrrrrrGGGGGGGGG"/>
		<phase duration="5" state="rrrrrrrrrrrrrrrrrrrrrrrrrrrrrrrrrrrr"/>
		<phase duration="30" state="GGGrrrrrrGGGGGGGGGGGGrrrrrrGGGrrrrrr"/>
		<phase duration="5" state="rrrrrrrrrrrrrrrrrrrrrrrrrrrrrrrrrrrr"/>
		<phase duration="30" state="GGGrrrrrrGGGrrrrrrGGGGGGGGGGGGrrrrrr"/>
		<phase duration="5" state="rrrrrrrrrrrrrrrrrrrrrrrrrrrrrrrrrrrr"/>
		<phase duration="30" state="GGGGGGGGGGGGrrrrrrGGGrrrrrrGGGrrrrrr"/>
		<phase duration="5" state="rrrrrrrrrrrrrrrrrrrrrrrrrrrrrrrrrrrr"/>
	</tlLogic>
	<tlLogic id="intersection_1_23" offset="0" programID="0" type="static">
		<phase duration="30" state="GGGrrrrrrGGGGGGrrrGGGrrrrrrGGGGGGrrr"/>
		<phase duration="5" state="rrrrrrrrrrrrrrrrrrrrrrrrrrrrrrrrrrrr"/>
		<phase duration="30" state="GGGGGGrrrGGGrrrrrrGGGGGGrrrGGGrrrrrr"/>
		<phase duration="5" state="rrrrrrrrrrrrrrrrrrrrrrrrrrrrrrrrrrrr"/>
		<phase duration="30" state="GGGrrrrrrGGGrrrGGGGGGrrrrrrGGGrrrGGG"/>
		<phase duration="5" state="rrrrrrrrrrrrrrrrrrrrrrrrrrrrrrrrrrrr"/>
		<phase duration="30" state="GGGrrrGGGGGGrrrrrrGGGrrrGGGGGGrrrrrr"/>
		<phase duration="5" state="rrrrrrrrrrrrrrrrrrrrrrrrrrrrrrrrrrrr"/>
		<phase duration="30" state="GGGrrrrrrGGGrrrrrrGGGrrrrrrGGGGGGGGG"/>
		<phase duration="5" state="rrrrrrrrrrrrrrrrrrrrrrrrrrrrrrrrrrrr"/>
		<phase duration="30" state="GGGrrrrrrGGGGGGGGGGGGrrrrrrGGGrrrrrr"/>
		<phase duration="5" state="rrrrrrrrrrrrrrrrrrrrrrrrrrrrrrrrrrrr"/>
		<phase duration="30" state="GGGrrrrrrGGGrrrrrrGGGGGGGGGGGGrrrrrr"/>
		<phase duration="5" state="rrrrrrrrrrrrrrrrrrrrrrrrrrrrrrrrrrrr"/>
		<phase duration="30" state="GGGGGGGGGGGGrrrrrrGGGrrrrrrGGGrrrrrr"/>
		<phase duration="5" state="rrrrrrrrrrrrrrrrrrrrrrrrrrrrrrrrrrrr"/>
	</tlLogic>
	<tlLogic id="intersection_1_24" offset="0" programID="0" type="static">
		<phase duration="30" state="GGGrrrrrrGGGGGGrrrGGGrrrrrrGGGGGGrrr"/>
		<phase duration="5" state="rrrrrrrrrrrrrrrrrrrrrrrrrrrrrrrrrrrr"/>
		<phase duration="30" state="GGGGGGrrrGGGrrrrrrGGGGGGrrrGGGrrrrrr"/>
		<phase duration="5" state="rrrrrrrrrrrrrrrrrrrrrrrrrrrrrrrrrrrr"/>
		<phase duration="30" state="GGGrrrrrrGGGrrrGGGGGGrrrrrrGGGrrrGGG"/>
		<phase duration="5" state="rrrrrrrrrrrrrrrrrrrrrrrrrrrrrrrrrrrr"/>
		<phase duration="30" state="GGGrrrGGGGGGrrrrrrGGGrrrGGGGGGrrrrrr"/>
		<phase duration="5" state="rrrrrrrrrrrrrrrrrrrrrrrrrrrrrrrrrrrr"/>
		<phase duration="30" state="GGGrrrrrrGGGrrrrrrGGGrrrrrrGGGGGGGGG"/>
		<phase duration="5" state="rrrrrrrrrrrrrrrrrrrrrrrrrrrrrrrrrrrr"/>
		<phase duration="30" state="GGGrrrrrrGGGGGGGGGGGGrrrrrrGGGrrrrrr"/>
		<phase duration="5" state="rrrrrrrrrrrrrrrrrrrrrrrrrrrrrrrrrrrr"/>
		<phase duration="30" state="GGGrrrrrrGGGrrrrrrGGGGGGGGGGGGrrrrrr"/>
		<phase duration="5" state="rrrrrrrrrrrrrrrrrrrrrrrrrrrrrrrrrrrr"/>
		<phase duration="30" state="GGGGGGGGGGGGrrrrrrGGGrrrrrrGGGrrrrrr"/>
		<phase duration="5" state="rrrrrrrrrrrrrrrrrrrrrrrrrrrrrrrrrrrr"/>
	</tlLogic>
	<tlLogic id="intersection_1_25" offset="0" programID="0" type="static">
		<phase duration="30" state="GGGrrrrrrGGGGGGrrrGGGrrrrrrGGGGGGrrr"/>
		<phase duration="5" state="rrrrrrrrrrrrrrrrrrrrrrrrrrrrrrrrrrrr"/>
		<phase duration="30" state="GGGGGGrrrGGGrrrrrrGGGGGGrrrGGGrrrrrr"/>
		<phase duration="5" state="rrrrrrrrrrrrrrrrrrrrrrrrrrrrrrrrrrrr"/>
		<phase duration="30" state="GGGrrrrrrGGGrrrGGGGGGrrrrrrGGGrrrGGG"/>
		<phase duration="5" state="rrrrrrrrrrrrrrrrrrrrrrrrrrrrrrrrrrrr"/>
		<phase duration="30" state="GGGrrrGGGGGGrrrrrrGGGrrrGGGGGGrrrrrr"/>
		<phase duration="5" state="rrrrrrrrrrrrrrrrrrrrrrrrrrrrrrrrrrrr"/>
		<phase duration="30" state="GGGrrrrrrGGGrrrrrrGGGrrrrrrGGGGGGGGG"/>
		<phase duration="5" state="rrrrrrrrrrrrrrrrrrrrrrrrrrrrrrrrrrrr"/>
		<phase duration="30" state="GGGrrrrrrGGGGGGGGGGGGrrrrrrGGGrrrrrr"/>
		<phase duration="5" state="rrrrrrrrrrrrrrrrrrrrrrrrrrrrrrrrrrrr"/>
		<phase duration="30" state="GGGrrrrrrGGGrrrrrrGGGGGGGGGGGGrrrrrr"/>
		<phase duration="5" state="rrrrrrrrrrrrrrrrrrrrrrrrrrrrrrrrrrrr"/>