<?xml version="1.0" encoding="utf-8"?>
<nodes xmlns:xsi="http://www.w3.org/2001/XMLSchema-instance" xsi:noNamespaceSchemaLocation="http://sumo.dlr.de/xsd/nodes_file.xsd">
	<node id="intersection_0_1" type="priority" x="-300" y="0"/>
	<node id="intersection_0_2" type="priority" x="-300" y="300"/>
	<node id="intersection_0_3" type="priority" x="-300" y="600"/>
	<node id="intersection_0_4" type="priority" x="-300" y="900"/>
	<node id="intersection_0_5" type="priority" x="-300" y="1200"/>
	<node id="intersection_0_6" type="priority" x="-300" y="1500"/>
	<node id="intersection_0_7" type="priority" x="-300" y="1800"/>
	<node id="intersection_0_8" type="priority" x="-300" y="2100"/>
	<node id="intersection_0_9" type="priority" x="-300" y="2400"/>
	<node id="intersection_0_10" type="priority" x="-300" y="2700"/>
	<node id="intersection_0_11" type="priority" x="-300" y="3000"/>
	<node id="intersection_0_12" type="priority" x="-300" y="3300"/>
	<node id="intersection_0_13" type="priority" x="-300" y="3600"/>
	<node id="intersection_0_14" type="priority" x="-300" y="3900"/>
	<node id="intersection_0_15" type="priority" x="-300" y="4200"/>
	<node id="intersection_0_16" type="priority" x="-300" y="4500"/>
	<node id="intersection_0_17" type="priority" x="-300" y="4800"/>
	<node id="intersection_0_18" type="priority" x="-300" y="5100"/>
	<node id="intersection_0_19" type="priority" x="-300" y="5400"/>
	<node id="intersection_0_20" type="priority" x="-300" y="5700"/>
	<node id="intersection_0_21" type="priority" x="-300" y="6000"/>
	<node id="intersection_0_22" type="priority" x="-300" y="6300"/>
	<node id="intersection_0_23" type="priority" x="-300" y="6600"/>
	<node id="intersection_0_24" type="priority" x="-300" y="6900"/>
	<node id="intersection_0_25" type="priority" x="-300" y="7200"/>
	<node id="intersection_0_26" type="priority" x="-300" y="7500"/>
	<node id="intersection_0_27" type="priority" x="-300" y="7800"/>
	<node id="intersection_0_28" type="priority" x="-300" y="8100"/>
	<node id="intersection_1_0" type="priority" x="0" y="-300"/>
	<node id="intersection_1_1" type="traffic_light" x="0" y="0"/>
	<node id="intersection_1_2" type="traffic_light" x="0" y="300"/>
	<node id="intersection_1_3" type="traffic_light" x="0" y="600"/>
	<node id="intersection_1_4" type="traffic_light" x="0" y="900"/>
	<node id="intersection_1_5" type="traffic_light" x="0" y="1200"/>
	<node id="intersection_1_6" type="traffic_light" x="0" y="1500"/>
	<node id="intersection_1_7" type="traffic_light" x="0" y="1800"/>
	<node id="intersection_1_8" type="traffic_light" x="0" y="2100"/>
	<node id="intersection_1_9" type="traffic_light" x="0" y="2400"/>
	<node id="intersection_1_10" type="traffic_light" x="0" y="2700"/>
	<node id="intersection_1_11" type="traffic_light" x="0" y="3000"/>
	<node id="intersection_1_12" type="traffic_light" x="0" y="3300"/>
	<node id="intersection_1_13" type="traffic_light" x="0" y="3600"/>
	<node id="intersection_1_14" type="traffic_light" x="0" y="3900"/>
	<node id="intersection_1_15" type="traffic_light" x="0" y="4200"/>
	<node id="intersection_1_16" type="traffic_light" x="0" y="4500"/>
	<node id="intersection_1_17" type="traffic_light" x="0" y="4800"/>
	<node id="intersection_1_18" type="traffic_light" x="0" y="5100"/>
	<node id="intersection_1_19" type="traffic_light" x="0" y="5400"/>
	<node id="intersection_1_20" type="traffic_light" x="0" y="5700"/>
	<node id="intersection_1_21" type="traffic_light" x="0" y="6000"/>
	<node id="intersection_1_22" type="traffic_light" x="0" y="6300"/>
	<node id="intersection_1_23" type="traffic_light" x="0" y="6600"/>
	<node id="intersection_1_24" type="traffic_light" x="0" y="6900"/>
	<node id="intersection_1_25" type="traffic_light" x="0" y="7200"/>
	<node id="intersection_1_26" type="traffic_light" x="0" y="7500"/>
	<node id="intersection_1_27" type="traffic_light" x="0" y="7800"/>
	<node id="intersection_1_28" type="traffic_light" x="0" y="8100"/>
	<node id="intersection_1_29" type="priority" x="0" y="8400"/>
	<node id="intersection_2_0" type="priority" x="300" y="-300"/>
	<node id="intersection_2_1" type="traffic_light" x="300" y="0"/>
	<node id="intersection_2_2" type="traffic_light" x="300" y="300"/>
	<node id="intersection_2_3" type="traffic_light" x="300" y="600"/>
	<node id="intersection_2_4" type="traffic_light" x="300" y="900"/>
	<node id="intersection_2_5" type="traffic_light" x="300" y="1200"/>
	<node id="intersection_2_6" type="traffic_light" x="300" y="1500"/>
	<node id="intersection_2_7" type="traffic_light" x="300" y="1800"/>
	<node id="intersection_2_8" type="traffic_light" x="300" y="2100"/>
	<node id="intersection_2_9" type="traffic_light" x="300" y="2400"/>
	<node id="intersection_2_10" type="traffic_light" x="300" y="2700"/>
	<node id="intersection_2_11" type="traffic_light" x="300" y="3000"/>
	<node id="intersection_2_12" type="traffic_light" x="300" y="3300"/>
	<node id="intersection_2_13" type="traffic_light" x="300" y="3600"/>
	<node id="intersection_2_14" type="traffic_light" x="300" y="3900"/>
	<node id="intersection_2_15" type="traffic_light" x="300" y="4200"/>
	<node id="intersection_2_16" type="traffic_light" x="300" y="4500"/>
	<node id="intersection_2_17" type="traffic_light" x="300" y="4800"/>
	<node id="intersection_2_18" type="traffic_light" x="300" y="5100"/>
	<node id="intersection_2_19" type="traffic_light" x="300" y="5400"/>
	<node id="intersection_2_20" type="traffic_light" x="300" y="5700"/>
	<node id="intersection_2_21" type="traffic_light" x="300" y="6000"/>
	<node id="intersection_2_22" type="traffic_light" x="300" y="6300"/>
	<node id="intersection_2_23" type="traffic_light" x="300" y="6600"/>
	<node id="intersection_2_24" type="traffic_light" x="300" y="6900"/>
	<node id="intersection_2_25" type="traffic_light" x="300" y="7200"/>
	<node id="intersection_2_26" type="traffic_light" x="300" y="7500"/>
	<node id="intersection_2_27" type="traffic_light" x="300" y="7800"/>
	<node id="intersection_2_28" type="traffic_light" x="300" y="8100"/>
	<node id="intersection_2_29" type="priority" x="300" y="8400"/>
	<node id="intersection_3_0" type="priority" x="600" y="-300"/>
	<node id="intersection_3_1" type="traffic_light" x="600" y="0"/>
	<node id="intersection_3_2" type="traffic_light" x="600" y="300"/>
	<node id="intersection_3_3" type="traffic_light" x="600" y="600"/>
	<node id="intersection_3_4" type="traffic_light" x="600" y="900"/>
	<node id="intersection_3_5" type="traffic_light" x="600" y="1200"/>
	<node id="intersection_3_6" type="traffic_light" x="600" y="1500"/>
	<node id="intersection_3_7" type="traffic_light" x="600" y="1800"/>
	<node id="intersection_3_8" type="traffic_light" x="600" y="2100"/>
	<node id="intersection_3_9" type="traffic_light" x="600" y="2400"/>
	<node id="intersection_3_10" type="traffic_light" x="600" y="2700"/>
	<node id="intersection_3_11" type="traffic_light" x="600" y="3000"/>
	<node id="intersection_3_12" type="traffic_light" x="600" y="3300"/>
	<node id="intersection_3_13" type="traffic_light" x="600" y="3600"/>
	<node id="intersection_3_14" type="traffic_light" x="600" y="3900"/>
	<node id="intersection_3_15" type="traffic_light" x="600" y="4200"/>
	<node id="intersection_3_16" type="traffic_light" x="600" y="4500"/>
	<node id="intersection_3_17" type="traffic_light" x="600" y="4800"/>
	<node id="intersection_3_18" type="traffic_light" x="600" y="5100"/>
	<node id="intersection_3_19" type="traffic_light" x="600" y="5400"/>
	<node id="intersection_3_20" type="traffic_light" x="600" y="5700"/>
	<node id="intersection_3_21" type="traffic_light" x="600" y="6000"/>
	<node id="intersection_3_22" type="traffic_light" x="600" y="6300"/>
	<node id="intersection_3_23" type="traffic_light" x="600" y="6600"/>
	<node id="intersection_3_24" type="traffic_light" x="600" y="6900"/>
	<node id="intersection_3_25" type="traffic_light" x="600" y="7200"/>
	<node id="intersection_3_26" type="traffic_light" x="600" y="7500"/>
	<node id="intersection_3_27" type="traffic_light" x="600" y="7800"/>
	<node id="intersection_3_28" type="traffic_light" x="600" y="8100"/>
	<node id="intersection_3_29" type="priority" x="600" y="8400"/>
	<node id="intersection_4_0" type="priority" x="900" y="-300"/>
	<node id="intersection_4_1" type="traffic_light" x="900" y="0"/>
	<node id="intersection_4_2" type="traffic_light" x="900" y="300"/>
	<node id="intersection_4_3" type="traffic_light" x="900" y="600"/>
	<node id="intersection_4_4" type="traffic_light" x="900" y="900"/>
	<node id="intersection_4_5" type="traffic_light" x="900" y="1200"/>
	<node id="intersection_4_6" type="traffic_light" x="900" y="1500"/>
	<node id="intersection_4_7" type="traffic_light" x="900" y="1800"/>
	<node id="intersection_4_8" type="traffic_light" x="900" y="2100"/>
	<node id="intersection_4_9" type="traffic_light" x="900" y="2400"/>
	<node id="intersection_4_10" type="traffic_light" x="900" y="2700"/>
	<node id="intersection_4_11" type="traffic_light" x="900" y="3000"/>
	<node id="intersection_4_12" type="traffic_light" x="900" y="3300"/>
	<node id="intersection_4_13" type="traffic_light" x="900" y="3600"/>
	<node id="intersection_4_14" type="traffic_light" x="900" y="3900"/>
	<node id="intersection_4_15" type="traffic_light" x="900" y="4200"/>
	<node id="intersection_4_16" type="traffic_light" x="900" y="4500"/>
	<node id="intersection_4_17" type="traffic_light" x="900" y="4800"/>
	<node id="intersection_4_18" type="traffic_light" x="900" y="5100"/>
	<node id="intersection_4_19" type="traffic_light" x="900" y="5400"/>
	<node id="intersection_4_20" type="traffic_light" x="900" y="5700"/>
	<node id="intersection_4_21" type="traffic_light" x="900" y="6000"/>
	<node id="intersection_4_22" type="traffic_light" x="900" y="6300"/>
	<node id="intersection_4_23" type="traffic_light" x="900" y="6600"/>
	<node id="intersection_4_24" type="traffic_light" x="900" y="6900"/>
	<node id="intersection_4_25" type="traffic_light" x="900" y="7200"/>
	<node id="intersection_4_26" type="traffic_light" x="900" y="7500"/>
	<node id="intersection_4_27" type="traffic_light" x="900" y="7800"/>
	<node id="intersection_4_28" type="traffic_light" x="900" y="8100"/>
	<node id="intersection_4_29" type="priority" x="900" y="8400"/>
	<node id="intersection_5_0" type="priority" x="1200" y="-300"/>
	<node id="intersection_5_1" type="traffic_light" x="1200" y="0"/>
	<node id="intersection_5_2" type="traffic_light" x="1200" y="300"/>
	<node id="intersection_5_3" type="traffic_light" x="1200" y="600"/>
	<node id="intersection_5_4" type="traffic_light" x="1200" y="900"/>
	<node id="intersection_5_5" type="traffic_light" x="1200" y="1200"/>
	<node id="intersection_5_6" type="traffic_light" x="1200" y="1500"/>
	<node id="intersection_5_7" type="traffic_light" x="1200" y="1800"/>
	<node id="intersection_5_8" type="traffic_light" x="1200" y="2100"/>
	<node id="intersection_5_9" type="traffic_light" x="1200" y="2400"/>
	<node id="intersection_5_10" type="traffic_light" x="1200" y="2700"/>
	<node id="intersection_5_11" type="traffic_light" x="1200" y="3000"/>
	<node id="intersection_5_12" type="traffic_light" x="1200" y="3300"/>
	<node id="intersection_5_13" type="traffic_light" x="1200" y="3600"/>
	<node id="intersection_5_14" type="traffic_light" x="1200" y="3900"/>
	<node id="intersection_5_15" type="traffic_light" x="1200" y="4200"/>
	<node id="intersection_5_16" type="traffic_light" x="1200" y="4500"/>
	<node id="intersection_5_17" type="traffic_light" x="1200" y="4800"/>
	<node id="intersection_5_18" type="traffic_light" x="1200" y="5100"/>
	<node id="intersection_5_19" type="traffic_light" x="1200" y="5400"/>
	<node id="intersection_5_20" type="traffic_light" x="1200" y="5700"/>
	<node id="intersection_5_21" type="traffic_light" x="1200" y="6000"/>
	<node id="intersection_5_22" type="traffic_light" x="1200" y="6300"/>
	<node id="intersection_5_23" type="traffic_light" x="1200" y="6600"/>
	<node id="intersection_5_24" type="traffic_light" x="1200" y="6900"/>
	<node id="intersection_5_25" type="traffic_light" x="1200" y="7200"/>
	<node id="intersection_5_26" type="traffic_light" x="1200" y="7500"/>
	<node id="intersection_5_27" type="traffic_light" x="1200" y="7800"/>
	<node id="intersection_5_28" type="traffic_light" x="1200" y="8100"/>
	<node id="intersection_5_29" type="priority" x="1200" y="8400"/>
	<node id="intersection_6_0" type="priority" x="1500" y="-300"/>
	<node id="intersection_6_1" type="traffic_light" x="1500" y="0"/>
	<node id="intersection_6_2" type="traffic_light" x="1500" y="300"/>
	<node id="intersection_6_3" type="traffic_light" x="1500" y="600"/>
	<node id="intersection_6_4" type="traffic_light" x="1500" y="900"/>
	<node id="intersection_6_5" type="traffic_light" x="1500" y="1200"/>
	<node id="intersection_6_6" type="traffic_light" x="1500" y="1500"/>
	<node id="intersection_6_7" type="traffic_light" x="1500" y="1800"/>
	<node id="intersection_6_8" type="traffic_light" x="1500" y="2100"/>
	<node id="intersection_6_9" type="traffic_light" x="1500" y="2400"/>
	<node id="intersection_6_10" type="traffic_light" x="1500" y="2700"/>
	<node id="intersection_6_11" type="traffic_light" x="1500" y="3000"/>
	<node id="intersection_6_12" type="traffic_light" x="1500" y="3300"/>
	<node id="intersection_6_13" type="traffic_light" x="1500" y="3600"/>
	<node id="intersection_6_14" type="traffic_light" x="1500" y="3900"/>
	<node id="intersection_6_15" type="traffic_light" x="1500" y="4200"/>
	<node id="intersection_6_16" type="traffic_light" x="1500" y="4500"/>
	<node id="intersection_6_17" type="traffic_light" x="1500" y="4800"/>
	<node id="intersection_6_18" type="traffic_light" x="1500" y="5100"/>
	<node id="intersection_6_19" type="traffic_light" x="1500" y="5400"/>
	<node id="intersection_6_20" type="traffic_light" x="1500" y="5700"/>
	<node id="intersection_6_21" type="traffic_light" x="1500" y="6000"/>
	<node id="intersection_6_22" type="traffic_light" x="1500" y="6300"/>
	<node id="intersection_6_23" type="traffic_light" x="1500" y="6600"/>
	<node id="intersection_6_24" type="traffic_light" x="1500" y="6900"/>
	<node id="intersection_6_25" type="traffic_light" x="1500" y="7200"/>
	<node id="intersection_6_26" type="traffic_light" x="1500" y="7500"/>
	<node id="intersection_6_27" type="traffic_light" x="1500" y="7800"/>
	<node id="intersection_6_28" type="traffic_light" x="1500" y="8100"/>
	<node id="intersection_6_29" type="priority" x="1500" y="8400"/>
	<node id="intersection_7_0" type="priority" x="1800" y="-300"/>
	<node id="intersection_7_1" type="traffic_light" x="1800" y="0"/>
	<node id="intersection_7_2" type="traffic_light" x="1800" y="300"/>
	<node id="intersection_7_3" type="traffic_light" x="1800" y="600"/>
	<node id="intersection_7_4" type="traffic_light" x="1800" y="900"/>
	<node id="intersection_7_5" type="traffic_light" x="1800" y="1200"/>
	<node id="intersection_7_6" type="traffic_light" x="1800" y="1500"/>
	<node id="intersection_7_7" type="traffic_light" x="1800" y="1800"/>
	<node id="intersection_7_8" type="traffic_light" x="1800" y="2100"/>
	<node id="intersection_7_9" type="traffic_light" x="1800" y="2400"/>
	<node id="intersection_7_10" type="traffic_light" x="1800" y="2700"/>
	<node id="intersection_7_11" type="traffic_light" x="1800" y="3000"/>
	<node id="intersection_7_12" type="traffic_light" x="1800" y="3300"/>
	<node id="intersection_7_13" type="traffic_light" x="1800" y="3600"/>
	<node id="intersection_7_14" type="traffic_light" x="1800" y="3900"/>
	<node id="intersection_7_15" type="traffic_light" x="1800" y="4200"/>
	<node id="intersection_7_16" type="traffic_light" x="1800" y="4500"/>
	<node id="intersection_7_17" type="traffic_light" x="1800" y="4800"/>
	<node id="intersection_7_18" type="traffic_light" x="1800" y="5100"/>
	<node id="intersection_7_19" type="traffic_light" x="1800" y="5400"/>
	<node id="intersection_7_20" type="traffic_light" x="1800" y="5700"/>
	<node id="intersection_7_21" type="traffic_light" x="1800" y="6000"/>
	<node id="intersection_7_22" type="traffic_light" x="1800" y="6300"/>
	<node id="intersection_7_23" type="traffic_light" x="1800" y="6600"/>
	<node id="intersection_7_24" type="traffic_light" x="1800" y="6900"/>
	<node id="intersection_7_25" type="traffic_light" x="1800" y="7200"/>
	<node id="intersection_7_26" type="traffic_light" x="1800" y="7500"/>
	<node id="intersection_7_27" type="traffic_light" x="1800" y="7800"/>
	<node id="intersection_7_28" type="traffic_light" x="1800" y="8100"/>
	<node id="intersection_7_29" type="priority" x="1800" y="8400"/>
	<node id="intersection_8_1" type="priority" x="2100" y="0"/>
	<node id="intersection_8_2" type="priority" x="2100" y="300"/>
	<node id="intersection_8_3" type="priority" x="2100" y="600"/>
	<node id="intersection_8_4" type="priority" x="2100" y="900"/>
	<node id="intersection_8_5" type="priority" x="2100" y="1200"/>
	<node id="intersection_8_6" type="priority" x="2100" y="1500"/>
	<node id="intersection_8_7" type="priority" x="2100" y="1800"/>
	<node id="intersection_8_8" type="priority" x="2100" y="2100"/>
	<node id="intersection_8_9" type="priority" x="2100" y="2400"/>
	<node id="intersection_8_10" type="priority" x="2100" y="2700"/>
	<node id="intersection_8_11" type="priority" x="2100" y="3000"/>
	<node id="intersection_8_12" type="priority" x="2100" y="3300"/>
	<node id="intersection_8_13" type="priority" x="2100" y="3600"/>
	<node id="intersection_8_14" type="priority" x="2100" y="3900"/>
	<node id="intersection_8_15" type="priority" x="2100" y="4200"/>
	<node id="intersection_8_16" type="priority" x="2100" y="4500"/>
	<node id="intersection_8_17" type="priority" x="2100" y="4800"/>
	<node id="intersection_8_18" type="priority" x="2100" y="5100"/>
	<node id="intersection_8_19" type="priority" x="2100" y="5400"/>
	<node id="intersection_8_20" type="priority" x="2100" y="5700"/>
	<node id="intersection_8_21" type="priority" x="2100" y="6000"/>
	<node id="intersection_8_22" type="priority" x="2100" y="6300"/>
	<node id="intersection_8_23" type="priority" x="2100" y="6600"/>
	<node id="intersection_8_24" type="priority" x="2100" y="6900"/>
	<node id="intersection_8_25" type="priority" x="2100" y="7200"/>
	<node id="intersection_8_26" type="priority" x="2100" y="7500"/>
	<node id="intersection_8_27" type="priority" x="2100" y="7800"/>
	<node id="intersection_8_28" type="priority" x="2100" y="8100"/>
</nodes>
