<?xml version="1.0" encoding="utf-8"?>
	<routes xmlns:xsi="http://www.w3.org/2001/XMLSchema-instance" xsi:noNamespaceSchemaLocation="http://sumo.dlr.de/xsd/routes_file.xsd">
		<vType accel="2.0" decel="4.5" id="pkw" length="5.0" maxSpeed="11.111" minGap="2.5" width="2.0"/>
		<vehicle depart="0" id="0">
			<route edges="road_8_2_2 road_7_2_3 road_7_1_3"/>
		</vehicle>
		<vehicle depart="0" id="1">
			<route edges="road_8_6_2 road_7_6_3 road_7_5_2 road_6_5_2 road_5_5_2 road_4_5_2 road_3_5_3 road_3_4_3 road_3_3_3 road_3_2_3 road_3_1_2 road_2_1_2 road_1_1_3"/>
		</vehicle>
		<vehicle depart="0" id="2">
			<route edges="road_8_9_2 road_7_9_2 road_6_9_2 road_5_9_3 road_5_8_3 road_5_7_3 road_5_6_3 road_5_5_3 road_5_4_3 road_5_3_3 road_5_2_3 road_5_1_3"/>
		</vehicle>
		<vehicle depart="0" id="3">
			<route edges="road_8_11_2 road_7_11_2 road_6_11_2 road_5_11_3 road_5_10_3 road_5_9_3 road_5_8_3 road_5_7_3 road_5_6_3 road_5_5_3 road_5_4_3 road_5_3_3 road_5_2_3 road_5_1_3"/>
		</vehicle>
		<vehicle depart="0" id="4">
			<route edges="road_8_12_2 road_7_12_3 road_7_11_2 road_6_11_2 road_5_11_2 road_4_11_2 road_3_11_3 road_3_10_3 road_3_9_3 road_3_8_3 road_3_7_3 road_3_6_3 road_3_5_3 road_3_4_3 road_3_3_3 road_3_2_3 road_3_1_2 road_2_1_3"/>
		</vehicle>
		<vehicle depart="0" id="5">
			<route edges="road_8_13_2 road_7_13_2 road_6_13_2 road_5_13_3 road_5_12_3 road_5_11_3 road_5_10_2 road_4_10_2 road_3_10_3 road_3_9_3 road_3_8_3 road_3_7_3 road_3_6_3 road_3_5_3 road_3_4_3 road_3_3_3 road_3_2_3 road_3_1_2 road_2_1_2 road_1_1_3"/>
		</vehicle>
		<vehicle depart="0" id="6">
			<route edges="road_8_14_2 road_7_14_3 road_7_13_2 road_6_13_2 road_5_13_3 road_5_12_3 road_5_11_3 road_5_10_2 road_4_10_2 road_3_10_3 road_3_9_3 road_3_8_3 road_3_7_3 road_3_6_3 road_3_5_3 road_3_4_3 road_3_3_3 road_3_2_3 road_3_1_3"/>
		</vehicle>
		<vehicle depart="0" id="7">
			<route edges="road_8_18_2 road_7_18_3 road_7_17_3 road_7_16_3 road_7_15_3 road_7_14_3 road_7_13_3 road_7_12_3 road_7_11_3 road_7_10_2 road_6_10_2 road_5_10_2 road_4_10_2 road_3_10_3 road_3_9_3 road_3_8_3 road_3_7_2 road_2_7_2 road_1_7_1 road_1_8_2"/>
		</vehicle>
		<vehicle depart="0" id="8">
			<route edges="road_8_21_2 road_7_21_2 road_6_21_2 road_5_21_2 road_4_21_2 road_3_21_2 road_2_21_2 road_1_21_1 road_1_22_1 road_1_23_1 road_1_24_1 road_1_25_1 road_1_26_1 road_1_27_1 road_1_28_1"/>
		</vehicle>
		<vehicle depart="0" id="9">
			<route edges="road_8_23_2 road_7_23_2 road_6_23_2 road_5_23_2 road_4_23_2 road_3_23_2 road_2_23_3 road_2_22_3 road_2_21_3 road_2_20_3 road_2_19_3 road_2_18_3 road_2_17_3 road_2_16_3 road_2_15_3 road_2_14_3 road_2_13_3 road_2_12_3 road_2_11_3 road_2_10_3 road_2_9_3 road_2_8_3 road_2_7_3 road_2_6_3 road_2_5_2 road_1_5_2"/>
		</vehicle>
		<vehicle depart="0" id="10">
			<route edges="road_8_24_2 road_7_24_3 road_7_23_2 road_6_23_2 road_5_23_2 road_4_23_2 road_3_23_2 road_2_23_3 road_2_22_3 road_2_21_3 road_2_20_3 road_2_19_3 road_2_18_3 road_2_17_3 road_2_16_3 road_2_15_3 road_2_14_3 road_2_13_3 road_2_12_3 road_2_11_2 road_1_11_2"/>
		</vehicle>
		<vehicle depart="0" id="11">
			<route edges="road_8_27_2 road_7_27_2 road_6_27_2 road_5_27_2 road_4_27_2 road_3_27_2 road_2_27_2 road_1_27_1 road_1_28_0 road_2_28_1"/>
		</vehicle>
		<vehicle depart="0" id="12">
			<route edges="road_1_0_1 road_1_1_1 road_1_2_0 road_2_2_0 road_3_2_3 road_3_1_3"/>
		</vehicle>
		<vehicle depart="0" id="13">
			<route edges="road_2_0_1 road_2_1_1 road_2_2_0 road_3_2_0 road_4_2_0 road_5_2_3 road_5_1_2 road_4_1_3"/>
		</vehicle>
		<vehicle depart="0" id="14">
			<route edges="road_3_0_1 road_3_1_2 road_2_1_1 road_2_2_1 road_2_3_1 road_2_4_1 road_2_5_1 road_2_6_1 road_2_7_1 road_2_8_1 road_2_9_1 road_2_10_1 road_2_11_1 road_2_12_1 road_2_13_1 road_2_14_1 road_2_15_1 road_2_16_1 road_2_17_1 road_2_18_1 road_2_19_1 road_2_20_1 road_2_21_1 road_2_22_1 road_2_23_1 road_2_24_1 road_2_25_1 road_2_26_1 road_2_27_1 road_2_28_0 road_3_28_1"/>
		</vehicle>
		<vehicle depart="0" id="15">
			<route edges="road_4_0_1 road_4_1_2 road_3_1_2 road_2_1_2 road_1_1_3"/>
		</vehicle>
		<vehicle depart="0" id="16">
			<route edges="road_5_0_1 road_5_1_2 road_4_1_2 road_3_1_2 road_2_1_2 road_1_1_1 road_1_2_1 road_1_3_1 road_1_4_1 road_1_5_1 road_1_6_1 road_1_7_1 road_1_8_1 road_1_9_1 road_1_10_1 road_1_11_1 road_1_12_2"/>
		</vehicle>
		<vehicle depart="0" id="17">
			<route edges="road_6_0_1 road_6_1_2 road_5_1_2 road_4_1_2 road_3_1_3"/>
		</vehicle>
		<vehicle depart="0" id="18">
			<route edges="road_0_22_0 road_1_22_0 road_2_22_0 road_3_22_0 road_4_22_0 road_5_22_3 road_5_21_3 road_5_20_3 road_5_19_3 road_5_18_3 road_5_17_0 road_6_17_0 road_7_17_3 road_7_16_3 road_7_15_3 road_7_14_3 road_7_13_3 road_7_12_3 road_7_11_3 road_7_10_0"/>
		</vehicle>
		<vehicle depart="0" id="19">
			<route edges="road_0_10_0 road_1_10_0 road_2_10_1 road_2_11_1 road_2_12_1 road_2_13_1 road_2_14_1 road_2_15_1 road_2_16_1 road_2_17_1 road_2_18_1 road_2_19_1 road_2_20_1 road_2_21_1 road_2_22_1 road_2_23_1 road_2_24_1 road_2_25_1 road_2_26_1 road_2_27_1 road_2_28_1"/>
		</vehicle>
		<vehicle depart="0" id="20">
			<route edges="road_0_16_0 road_1_16_0 road_2_16_0 road_3_16_0 road_4_16_0 road_5_16_0 road_6_16_0 road_7_16_3 road_7_15_3 road_7_14_3 road_7_13_3 road_7_12_3 road_7_11_0"/>
		</vehicle>
		<vehicle depart="0" id="21">
			<route edges="road_0_5_0 road_1_5_1 road_1_6_0 road_2_6_0 road_3_6_0 road_4_6_0 road_5_6_0 road_6_6_0 road_7_6_1 road_7_7_1 road_7_8_1 road_7_9_1 road_7_10_1 road_7_11_1 road_7_12_1 road_7_13_1 road_7_14_1 road_7_15_1 road_7_16_1 road_7_17_1 road_7_18_1 road_7_19_1 road_7_20_1 road_7_21_1 road_7_22_1 road_7_23_1 road_7_24_1 road_7_25_1 road_7_26_1 road_7_27_1 road_7_28_1"/>
		</vehicle>
		<vehicle depart="0" id="22">
			<route edges="road_0_18_0 road_1_18_1 road_1_19_1 road_1_20_1 road_1_21_1 road_1_22_1 road_1_23_1 road_1_24_1 road_1_25_2"/>
		</vehicle>
		<vehicle depart="0" id="23">
			<route edges="road_0_11_0 road_1_11_1 road_1_12_0 road_2_12_3 road_2_11_3 road_2_10_3 road_2_9_3 road_2_8_3 road_2_7_3 road_2_6_3 road_2_5_3 road_2_4_3 road_2_3_3 road_2_2_3 road_2_1_2 road_1_1_3"/>
		</vehicle>
		<vehicle depart="0" id="24">
			<route edges="road_0_12_0 road_1_12_1 road_1_13_1 road_1_14_1 road_1_15_1 road_1_16_1 road_1_17_1 road_1_18_1 road_1_19_1 road_1_20_1 road_1_21_1 road_1_22_1 road_1_23_1 road_1_24_1 road_1_25_1 road_1_26_1 road_1_27_1 road_1_28_0 road_2_28_1"/>
		</vehicle>
		<vehicle depart="0" id="25">
			<route edges="road_5_29_3 road_5_28_3 road_5_27_3 road_5_26_3 road_5_25_3 road_5_24_3 road_5_23_3 road_5_22_3 road_5_21_3 road_5_20_3 road_5_19_3 road_5_18_3 road_5_17_0 road_6_17_0 road_7_17_3 road_7_16_3 road_7_15_3 road_7_14_3 road_7_13_3 road_7_12_3 road_7_11_3 road_7_10_3 road_7_9_0"/>
		</vehicle>
		<vehicle depart="0" id="26">
			<route edges="road_1_29_3 road_1_28_0 road_2_28_0 road_3_28_0 road_4_28_0 road_5_28_0 road_6_28_1"/>
		</vehicle>
		<vehicle depart="0" id="27">
			<route edges="road_2_29_3 road_2_28_0 road_3_28_3 road_3_27_2 road_2_27_3 road_2_26_3 road_2_25_3 road_2_24_3 road_2_23_3 road_2_22_3 road_2_21_3 road_2_20_3 road_2_19_3 road_2_18_3 road_2_17_3 road_2_16_3 road_2_15_3 road_2_14_3 road_2_13_3 road_2_12_3 road_2_11_3 road_2_10_3 road_2_9_3 road_2_8_3 road_2_7_3 road_2_6_3 road_2_5_3 road_2_4_3 road_2_3_3 road_2_2_3 road_2_1_2 road_1_1_3"/>
		</vehicle>
		<vehicle depart="0" id="28">
			<route edges="road_3_29_3 road_3_28_3 road_3_27_2 road_2_27_3 road_2_26_3 road_2_25_3 road_2_24_3 road_2_23_3 road_2_22_3 road_2_21_3 road_2_20_3 road_2_19_3 road_2_18_3 road_2_17_2 road_1_17_2"/>
		</vehicle>
		<vehicle depart="0" id="29">
			<route edges="road_6_29_3 road_6_28_0 road_7_28_3 road_7_27_2 road_6_27_2 road_5_27_3 road_5_26_3 road_5_25_2 road_4_25_2 road_3_25_2 road_2_25_3 road_2_24_3 road_2_23_3 road_2_22_3 road_2_21_3 road_2_20_3 road_2_19_3 road_2_18_3 road_2_17_2 road_1_17_1 road_1_18_2"/>
		</vehicle>
		<vehicle depart="0" id="30">
			<route edges="road_0_26_0 road_1_26_0 road_2_26_0 road_3_26_0 road_4_26_0 road_5_26_3 road_5_25_3 road_5_24_3 road_5_23_3 road_5_22_3 road_5_21_3 road_5_20_0 road_6_20_0 road_7_20_3 road_7_19_3 road_7_18_3 road_7_17_3 road_7_16_0"/>
		</vehicle>
		<vehicle depart="0" id="31">
			<route edges="road_0_17_0 road_1_17_0 road_2_17_3 road_2_16_3 road_2_15_3 road_2_14_3 road_2_13_3 road_2_12_3 road_2_11_3 road_2_10_3 road_2_9_3 road_2_8_3 road_2_7_3 road_2_6_3 road_2_5_3 road_2_4_3 road_2_3_3 road_2_2_3 road_2_1_2 road_1_1_3"/>
		</vehicle>
		<vehicle depart="0" id="32">
			<route edges="road_0_19_0 road_1_19_1 road_1_20_0 road_2_20_0 road_3_20_0 road_4_20_0 road_5_20_0 road_6_20_0 road_7_20_1 road_7_21_1 road_7_22_1 road_7_23_1 road_7_24_1 road_7_25_1 road_7_26_1 road_7_27_0"/>
		</vehicle>
		<vehicle depart="0" id="33">
			<route edges="road_0_21_0 road_1_21_1 road_1_22_0 road_2_22_3 road_2_21_3 road_2_20_3 road_2_19_3 road_2_18_3 road_2_17_3 road_2_16_3 road_2_15_3 road_2_14_3 road_2_13_3 road_2_12_3 road_2_11_3 road_2_10_3 road_2_9_3 road_2_8_3 road_2_7_3 road_2_6_3 road_2_5_3 road_2_4_3 road_2_3_3 road_2_2_0 road_3_2_0 road_4_2_0 road_5_2_3 road_5_1_3"/>
		</vehicle>
		<vehicle depart="0" id="34">
			<route edges="road_0_23_0 road_1_23_1 road_1_24_0 road_2_24_0 road_3_24_0 road_4_24_0 road_5_24_0 road_6_24_0 road_7_24_3 road_7_23_3 road_7_22_3 road_7_21_3 road_7_20_3 road_7_19_0"/>
		</vehicle>
		<vehicle depart="0" id="35">
			<route edges="road_2_0_1 road_2_1_2 road_1_1_1 road_1_2_1 road_1_3_1 road_1_4_1 road_1_5_2"/>
		</vehicle>
		<vehicle depart="0" id="36">
			<route edges="road_2_29_3 road_2_28_3 road_2_27_3 road_2_26_3 road_2_25_3 road_2_24_3 road_2_23_3 road_2_22_3 road_2_21_3 road_2_20_3 road_2_19_3 road_2_18_3 road_2_17_3 road_2_16_3 road_2_15_3 road_2_14_3 road_2_13_3 road_2_12_3 road_2_11_3 road_2_10_3 road_2_9_3 road_2_8_3 road_2_7_3 road_2_6_3 road_2_5_3 road_2_4_3 road_2_3_3 road_2_2_3 road_2_1_2 road_1_1_3"/>
		</vehicle>
		<vehicle depart="1" id="37">
			<route edges="road_2_0_1 road_2_1_2 road_1_1_3"/>
		</vehicle>
		<vehicle depart="1" id="38">
			<route edges="road_3_0_1 road_3_1_2 road_2_1_3"/>
		</vehicle>
		<vehicle depart="1" id="39">
			<route edges="road_4_0_1 road_4_1_2 road_3_1_2 road_2_1_2 road_1_1_1 road_1_2_1 road_1_3_1 road_1_4_1 road_1_5_1 road_1_6_1 road_1_7_1 road_1_8_1 road_1_9_1 road_1_10_1 road_1_11_1 road_1_12_1 road_1_13_1 road_1_14_1 road_1_15_1 road_1_16_1 road_1_17_1 road_1_18_1 road_1_19_1 road_1_20_1 road_1_21_1 road_1_22_1 road_1_23_1 road_1_24_1 road_1_25_1 road_1_26_1 road_1_27_1 road_1_28_1"/>
		</vehicle>
		<vehicle depart="2" id="40">
			<route edges="road_4_29_3 road_4_28_0 road_5_28_3 road_5_27_3 road_5_26_3 road_5_25_3 road_5_24_3 road_5_23_3 road_5_22_3 road_5_21_3 road_5_20_3 road_5_19_3 road_5_18_3 road_5_17_0 road_6_17_0 road_7_17_3 road_7_16_3 road_7_15_3 road_7_14_3 road_7_13_3 road_7_12_3 road_7_11_0"/>
		</vehicle>
		<vehicle depart="3" id="41">
			<route edges="road_1_0_1 road_1_1_1 road_1_2_0 road_2_2_0 road_3_2_3 road_3_1_2 road_2_1_3"/>
		</vehicle>
		<vehicle depart="5" id="42">
			<route edges="road_0_9_0 road_1_9_1 road_1_10_1 road_1_11_1 road_1_12_1 road_1_13_1 road_1_14_1 road_1_15_1 road_1_16_1 road_1_17_1 road_1_18_1 road_1_19_1 road_1_20_1 road_1_21_1 road_1_22_2"/>
		</vehicle>
		<vehicle depart="6" id="43">
			<route edges="road_4_29_3 road_4_28_0 road_5_28_3 road_5_27_3 road_5_26_3 road_5_25_3 road_5_24_3 road_5_23_3 road_5_22_3 road_5_21_3 road_5_20_3 road_5_19_3 road_5_18_3 road_5_17_3 road_5_16_3 road_5_15_3 road_5_14_3 road_5_13_3 road_5_12_3 road_5_11_3 road_5_10_3 road_5_9_3 road_5_8_3 road_5_7_3 road_5_6_3 road_5_5_3 road_5_4_3 road_5_3_3 road_5_2_3 road_5_1_3"/>
		</vehicle>
		<vehicle depart="7" id="44">
			<route edges="road_0_22_0 road_1_22_0 road_2_22_3 road_2_21_3 road_2_20_3 road_2_19_3 road_2_18_3 road_2_17_3 road_2_16_3 road_2_15_3 road_2_14_3 road_2_13_3 road_2_12_3 road_2_11_3 road_2_10_3 road_2_9_3 road_2_8_3 road_2_7_3 road_2_6_3 road_2_5_3 road_2_4_2 road_1_4_2"/>
		</vehicle>
		<vehicle depart="10" id="45">
			<route edges="road_1_0_1 road_1_1_1 road_1_2_1 road_1_3_1 road_1_4_1 road_1_5_1 road_1_6_1 road_1_7_1 road_1_8_1 road_1_9_1 road_1_10_1 road_1_11_1 road_1_12_1 road_1_13_1 road_1_14_2"/>
		</vehicle>
		<vehicle depart="10" id="46">
			<route edges="road_0_5_0 road_1_5_1 road_1_6_0 road_2_6_3 road_2_5_3 road_2_4_3 road_2_3_3 road_2_2_3 road_2_1_2 road_1_1_3"/>
		</vehicle>
		<vehicle depart="11" id="47">
			<route edges="road_0_21_0 road_1_21_1 road_1_22_1 road_1_23_1 road_1_24_1 road_1_25_1 road_1_26_1 road_1_27_1 road_1_28_1"/>
		</vehicle>
		<vehicle depart="12" id="48">
			<route edges="road_4_0_1 road_4_1_1 road_4_2_0 road_5_2_0 road_6_2_0 road_7_2_1 road_7_3_1 road_7_4_1 road_7_5_1 road_7_6_1 road_7_7_1 road_7_8_1 road_7_9_1 road_7_10_1 road_7_11_1 road_7_12_1 road_7_13_1 road_7_14_1 road_7_15_1 road_7_16_1 road_7_17_1 road_7_18_1 road_7_19_1 road_7_20_1 road_7_21_1 road_7_22_1 road_7_23_1 road_7_24_0"/>
		</vehicle>
		<vehicle depart="13" id="49">
			<route edges="road_1_0_1 road_1_1_1 road_1_2_1 road_1_3_1 road_1_4_1 road_1_5_1 road_1_6_1 road_1_7_1 road_1_8_1 road_1_9_1 road_1_10_2"/>
		</vehicle>
		<vehicle depart="15" id="50">
			<route edges="road_1_0_1 road_1_1_1 road_1_2_1 road_1_3_1 road_1_4_1 road_1_5_1 road_1_6_1 road_1_7_1 road_1_8_1 road_1_9_1 road_1_10_1 road_1_11_1 road_1_12_1 road_1_13_1 road_1_14_1 road_1_15_1 road_1_16_1 road_1_17_1 road_1_18_1 road_1_19_1 road_1_20_1 road_1_21_1 road_1_22_1 road_1_23_1 road_1_24_1 road_1_25_1 road_1_26_1 road_1_27_1 road_1_28_0 road_2_28_1"/>
		</vehicle>
		<vehicle depart="17" id="51">
			<route edges="road_8_24_2 road_7_24_3 road_7_23_3 road_7_22_3 road_7_21_3 road_7_20_0"/>
		</vehicle>
		<vehicle depart="17" id="52">
			<route edges="road_0_18_0 road_1_18_0 road_2_18_3 road_2_17_3 road_2_16_3 road_2_15_3 road_2_14_3 road_2_13_3 road_2_12_3 road_2_11_2 road_1_11_2"/>
		</vehicle>
		<vehicle depart="18" id="53">
			<route edges="road_2_29_3 road_2_28_0 road_3_28_3 road_3_27_2 road_2_27_3 road_2_26_3 road_2_25_3 road_2_24_3 road_2_23_3 road_2_22_3 road_2_21_3 road_2_20_3 road_2_19_3 road_2_18_3 road_2_17_3 road_2_16_3 road_2_15_3 road_2_14_3 road_2_13_3 road_2_12_3 road_2_11_3 road_2_10_2 road_1_10_2"/>
		</vehicle>
		<vehicle depart="22" id="54">
			<route edges="road_0_12_0 road_1_12_0 road_2_12_1 road_2_13_1 road_2_14_1 road_2_15_1 road_2_16_1 road_2_17_1 road_2_18_1 road_2_19_1 road_2_20_1 road_2_21_1 road_2_22_1 road_2_23_1 road_2_24_1 road_2_25_1 road_2_26_0 road_3_26_0 road_4_26_1 road_4_27_1 road_4_28_0 road_5_28_1"/>
		</vehicle>
		<vehicle depart="22" id="55">
			<route edges="road_1_29_3 road_1_28_0 road_2_28_3 road_2_27_3 road_2_26_3 road_2_25_3 road_2_24_3 road_2_23_3 road_2_22_3 road_2_21_3 road_2_20_3 road_2_19_3 road_2_18_3 road_2_17_3 road_2_16_3 road_2_15_3 road_2_14_3 road_2_13_3 road_2_12_3 road_2_11_3 road_2_10_3 road_2_9_3 road_2_8_3 road_2_7_2 road_1_7_2"/>
		</vehicle>
		<vehicle depart="25" id="56">
			<route edges="road_1_29_3 road_1_28_0 road_2_28_0 road_3_28_0 road_4_28_1"/>
		</vehicle>
		<vehicle depart="25" id="57">
			<route edges="road_0_25_0 road_1_25_1 road_1_26_1 road_1_27_1 road_1_28_0 road_2_28_1"/>
		</vehicle>
		<vehicle depart="27" id="58">
			<route edges="road_0_12_0 road_1_12_0 road_2_12_0 road_3_12_0 road_4_12_0 road_5_12_0 road_6_12_0 road_7_12_3 road_7_11_3 road_7_10_3 road_7_9_0"/>
		</vehicle>
		<vehicle depart="28" id="59">
			<route edges="road_8_19_2 road_7_19_2 road_6_19_2 road_5_19_2 road_4_19_2 road_3_19_2 road_2_19_2 road_1_19_1 road_1_20_1 road_1_21_1 road_1_22_1 road_1_23_1 road_1_24_1 road_1_25_1 road_1_26_1 road_1_27_1 road_1_28_0 road_2_28_1"/>
		</vehicle>
		<vehicle depart="28" id="60">
			<route edges="road_1_0_1 road_1_1_1 road_1_2_0 road_2_2_0 road_3_2_3 road_3_1_3"/>
		</vehicle>
		<vehicle depart="38" id="61">
			<route edges="road_0_14_0 road_1_14_0 road_2_14_0 road_3_14_0 road_4_14_0 road_5_14_0 road_6_14_0 road_7_14_1 road_7_15_1 road_7_16_1 road_7_17_1 road_7_18_1 road_7_19_1 road_7_20_1 road_7_21_1 road_7_22_1 road_7_23_1 road_7_24_1 road_7_25_0"/>
		</vehicle>
		<vehicle depart="39" id="62">
			<route edges="road_3_0_1 road_3_1_2 road_2_1_2 road_1_1_3"/>
		</vehicle>
		<vehicle depart="41" id="63">
			<route edges="road_8_19_2 road_7_19_3 road_7_18_3 road_7_17_3 road_7_16_3 road_7_15_3 road_7_14_3 road_7_13_3 road_7_12_3 road_7_11_3 road_7_10_2 road_6_10_2 road_5_10_3 road_5_9_3 road_5_8_3 road_5_7_3 road_5_6_3 road_5_5_3 road_5_4_3 road_5_3_3 road_5_2_3 road_5_1_3"/>
		</vehicle>
		<vehicle depart="42" id="64">
			<route edges="road_0_14_0 road_1_14_0 road_2_14_0 road_3_14_0 road_4_14_0 road_5_14_0 road_6_14_0 road_7_14_3 road_7_13_3 road_7_12_3 road_7_11_0"/>
		</vehicle>
		<vehicle depart="42" id="65">
			<route edges="road_0_23_0 road_1_23_1 road_1_24_0 road_2_24_0 road_3_24_0 road_4_24_1 road_4_25_1 road_4_26_0 road_5_26_0 road_6_26_0 road_7_26_1 road_7_27_0"/>
		</vehicle>
		<vehicle depart="43" id="66">
			<route edges="road_3_0_1 road_3_1_2 road_2_1_1 road_2_2_0 road_3_2_0 road_4_2_0 road_5_2_3 road_5_1_2 road_4_1_3"/>
		</vehicle>
		<vehicle depart="44" id="67">
			<route edges="road_0_16_0 road_1_16_0 road_2_16_3 road_2_15_3 road_2_14_3 road_2_13_3 road_2_12_3 road_2_11_3 road_2_10_3 road_2_9_3 road_2_8_3 road_2_7_3 road_2_6_3 road_2_5_3 road_2_4_3 road_2_3_3 road_2_2_3 road_2_1_3"/>
		</vehicle>
		<vehicle depart="45" id="68">
			<route edges="road_3_29_3 road_3_28_3 road_3_27_2 road_2_27_3 road_2_26_3 road_2_25_3 road_2_24_3 road_2_23_3 road_2_22_3 road_2_21_3 road_2_20_3 road_2_19_3 road_2_18_3 road_2_17_3 road_2_16_3 road_2_15_3 road_2_14_3 road_2_13_3 road_2_12_3 road_2_11_2 road_1_11_2"/>
		</vehicle>
		<vehicle depart="46" id="69">
			<route edges="road_3_0_1 road_3_1_2 road_2_1_2 road_1_1_3"/>
		</vehicle>
		<vehicle depart="46" id="70">
			<route edges="road_0_20_0 road_1_20_0 road_2_20_3 road_2_19_3 road_2_18_3 road_2_17_3 road_2_16_3 road_2_15_3 road_2_14_3 road_2_13_3 road_2_12_3 road_2_11_3 road_2_10_3 road_2_9_3 road_2_8_3 road_2_7_3 road_2_6_3 road_2_5_3 road_2_4_3 road_2_3_3 road_2_2_3 road_2_1_2 road_1_1_3"/>
		</vehicle>
		<vehicle depart="49" id="71">
			<route edges="road_0_23_0 road_1_23_1 road_1_24_0 road_2_24_3 road_2_23_3 road_2_22_3 road_2_21_3 road_2_20_3 road_2_19_3 road_2_18_3 road_2_17_3 road_2_16_3 road_2_15_3 road_2_14_3 road_2_13_3 road_2_12_3 road_2_11_3 road_2_10_3 road_2_9_3 road_2_8_3 road_2_7_3 road_2_6_3 road_2_5_2 road_1_5_1 road_1_6_2"/>
		</vehicle>
		<vehicle depart="50" id="72">
			<route edges="road_8_9_2 road_7_9_2 road_6_9_2 road_5_9_2 road_4_9_2 road_3_9_2 road_2_9_2 road_1_9_1 road_1_10_1 road_1_11_1 road_1_12_1 road_1_13_1 road_1_14_1 road_1_15_1 road_1_16_1 road_1_17_1 road_1_18_1 road_1_19_1 road_1_20_1 road_1_21_1 road_1_22_1 road_1_23_1 road_1_24_1 road_1_25_1 road_1_26_1 road_1_27_1 road_1_28_0 road_2_28_1"/>
		</vehicle>
		<vehicle depart="50" id="73">
			<route edges="road_1_0_1 road_1_1_1 road_1_2_0 road_2_2_0 road_3_2_0 road_4_2_0 road_5_2_0 road_6_2_0 road_7_2_1 road_7_3_1 road_7_4_0"/>
		</vehicle>
		<vehicle depart="52" id="74">
			<route edges="road_0_23_0 road_1_23_1 road_1_24_0 road_2_24_3 road_2_23_3 road_2_22_3 road_2_21_3 road_2_20_3 road_2_19_3 road_2_18_3 road_2_17_3 road_2_16_3 road_2_15_3 road_2_14_3 road_2_13_3 road_2_12_3 road_2_11_3 road_2_10_3 road_2_9_3 road_2_8_3 road_2_7_3 road_2_6_3 road_2_5_3 road_2_4_3 road_2_3_3 road_2_2_3 road_2_1_2 road_1_1_3"/>
		</vehicle>
		<vehicle depart="54" id="75">
			<route edges="road_5_29_3 road_5_28_3 road_5_27_2 road_4_27_2 road_3_27_2 road_2_27_1 road_2_28_1"/>
		</vehicle>
		<vehicle depart="55" id="76">
			<route edges="road_0_19_0 road_1_19_1 road_1_20_1 road_1_21_1 road_1_22_1 road_1_23_1 road_1_24_1 road_1_25_1 road_1_26_1 road_1_27_1 road_1_28_1"/>
		</vehicle>
		<vehicle depart="56" id="77">
			<route edges="road_8_20_2 road_7_20_3 road_7_19_2 road_6_19_2 road_5_19_2 road_4_19_2 road_3_19_2 road_2_19_3 road_2_18_3 road_2_17_3 road_2_16_3 road_2_15_3 road_2_14_3 road_2_13_3 road_2_12_3 road_2_11_3 road_2_10_3 road_2_9_3 road_2_8_3 road_2_7_2 road_1_7_1 road_1_8_2"/>
		</vehicle>
		<vehicle depart="56" id="78">
			<route edges="road_1_29_3 road_1_28_0 road_2_28_3 road_2_27_3 road_2_26_3 road_2_25_3 road_2_24_3 road_2_23_3 road_2_22_3 road_2_21_3 road_2_20_3 road_2_19_2 road_1_19_2"/>
		</vehicle>
		<vehicle depart="60" id="79">
			<route edges="road_8_10_2 road_7_10_2 road_6_10_2 road_5_10_3 road_5_9_2 road_4_9_2 road_3_9_3 road_3_8_3 road_3_7_3 road_3_6_3 road_3_5_3 road_3_4_3 road_3_3_3 road_3_2_3 road_3_1_2 road_2_1_2 road_1_1_3"/>
		</vehicle>
		<vehicle depart="60" id="80">
			<route edges="road_8_17_2 road_7_17_2 road_6_17_2 road_5_17_2 road_4_17_2 road_3_17_2 road_2_17_3 road_2_16_3 road_2_15_3 road_2_14_3 road_2_13_3 road_2_12_3 road_2_11_2 road_1_11_2"/>
		</vehicle>
		<vehicle depart="60" id="81">
			<route edges="road_8_24_2 road_7_24_3 road_7_23_2 road_6_23_2 road_5_23_2 road_4_23_2 road_3_23_2 road_2_23_3 road_2_22_3 road_2_21_3 road_2_20_3 road_2_19_2 road_1_19_2"/>
		</vehicle>
		<vehicle depart="60" id="82">
			<route edges="road_0_24_0 road_1_24_0 road_2_24_0 road_3_24_0 road_4_24_0 road_5_24_0 road_6_24_0 road_7_24_3 road_7_23_3 road_7_22_0"/>
		</vehicle>
		<vehicle depart="60" id="83">
			<route edges="road_0_8_0 road_1_8_1 road_1_9_1 road_1_10_1 road_1_11_1 road_1_12_1 road_1_13_1 road_1_14_2"/>
		</vehicle>
		<vehicle depart="60" id="84">
			<route edges="road_1_0_1 road_1_1_1 road_1_2_1 road_1_3_1 road_1_4_1 road_1_5_1 road_1_6_1 road_1_7_1 road_1_8_1 road_1_9_1 road_1_10_1 road_1_11_1 road_1_12_1 road_1_13_1 road_1_14_1 road_1_15_1 road_1_16_1 road_1_17_1 road_1_18_1 road_1_19_1 road_1_20_1 road_1_21_1 road_1_22_1 road_1_23_1 road_1_24_1 road_1_25_1 road_1_26_1 road_1_27_1 road_1_28_1"/>
		</vehicle>
		<vehicle depart="60" id="85">
			<route edges="road_2_0_1 road_2_1_2 road_1_1_3"/>
		</vehicle>
		<vehicle depart="60" id="86">
			<route edges="road_3_0_1 road_3_1_2 road_2_1_1 road_2_2_0 road_3_2_0 road_4_2_0 road_5_2_3 road_5_1_2 road_4_1_3"/>
		</vehicle>
		<vehicle depart="60" id="87">
			<route edges="road_4_0_1 road_4_1_2 road_3_1_2 road_2_1_2 road_1_1_3"/>
		</vehicle>
		<vehicle depart="60" id="88">
			<route edges="road_5_0_1 road_5_1_2 road_4_1_2 road_3_1_2 road_2_1_3"/>
		</vehicle>
		<vehicle depart="60" id="89">
			<route edges="road_6_0_1 road_6_1_2 road_5_1_2 road_4_1_2 road_3_1_3"/>
		</vehicle>
		<vehicle depart="60" id="90">
			<route edges="road_0_13_0 road_1_13_1 road_1_14_1 road_1_15_1 road_1_16_1 road_1_17_1 road_1_18_1 road_1_19_1 road_1_20_1 road_1_21_1 road_1_22_1 road_1_23_1 road_1_24_1 road_1_25_1 road_1_26_1 road_1_27_1 road_1_28_0 road_2_28_1"/>
		</vehicle>
		<vehicle depart="60" id="91">
			<route edges="road_0_2_0 road_1_2_0 road_2_2_3 road_2_1_2 road_1_1_3"/>
		</vehicle>
		<vehicle depart="60" id="92">
			<route edges="road_0_22_0 road_1_22_0 road_2_22_3 road_2_21_3 road_2_20_3 road_2_19_3 road_2_18_3 road_2_17_3 road_2_16_3 road_2_15_3 road_2_14_3 road_2_13_3 road_2_12_3 road_2_11_3 road_2_10_3 road_2_9_3 road_2_8_3 road_2_7_2 road_1_7_2"/>
		</vehicle>
		<vehicle depart="60" id="93">
			<route edges="road_0_10_0 road_1_10_1 road_1_11_1 road_1_12_1 road_1_13_1 road_1_14_1 road_1_15_1 road_1_16_2"/>
		</vehicle>
		<vehicle depart="60" id="94">
			<route edges="road_0_16_0 road_1_16_0 road_2_16_3 road_2_15_3 road_2_14_3 road_2_13_3 road_2_12_3 road_2_11_3 road_2_10_3 road_2_9_3 road_2_8_3 road_2_7_3 road_2_6_3 road_2_5_3 road_2_4_3 road_2_3_3 road_2_2_3 road_2_1_2 road_1_1_1 road_1_2_1 road_1_3_2"/>
		</vehicle>
		<vehicle depart="60" id="95">
			<route edges="road_0_20_0 road_1_20_0 road_2_20_3 road_2_19_3 road_2_18_3 road_2_17_3 road_2_16_3 road_2_15_3 road_2_14_3 road_2_13_3 road_2_12_3 road_2_11_3 road_2_10_3 road_2_9_3 road_2_8_3 road_2_7_3 road_2_6_3 road_2_5_3 road_2_4_3 road_2_3_3 road_2_2_3 road_2_1_3"/>
		</vehicle>
		<vehicle depart="60" id="96">
			<route edges="road_5_29_3 road_5_28_3 road_5_27_3 road_5_26_3 road_5_25_3 road_5_24_3 road_5_23_3 road_5_22_3 road_5_21_3 road_5_20_0 road_6_20_0 road_7_20_3 road_7_19_0"/>
		</vehicle>
		<vehicle depart="60" id="97">
			<route edges="road_1_29_3 road_1_28_0 road_2_28_3 road_2_27_3 road_2_26_3 road_2_25_3 road_2_24_3 road_2_23_3 road_2_22_3 road_2_21_3 road_2_20_3 road_2_19_2 road_1_19_1 road_1_20_2"/>
		</vehicle>
		<vehicle depart="60" id="98">
			<route edges="road_2_29_3 road_2_28_0 road_3_28_3 road_3_27_2 road_2_27_3 road_2_26_3 road_2_25_3 road_2_24_3 road_2_23_3 road_2_22_3 road_2_21_3 road_2_20_3 road_2_19_3 road_2_18_3 road_2_17_3 road_2_16_3 road_2_15_3 road_2_14_3 road_2_13_3 road_2_12_3 road_2_11_3 road_2_10_3 road_2_9_3 road_2_8_3 road_2_7_3 road_2_6_3 road_2_5_3 road_2_4_3 road_2_3_3 road_2_2_3 road_2_1_2 road_1_1_3"/>
		</vehicle>
		<vehicle depart="60" id="99">
			<route edges="road_3_29_3 road_3_28_3 road_3_27_3 road_3_26_3 road_3_25_3 road_3_24_3 road_3_23_3 road_3_22_3 road_3_21_3 road_3_20_3 road_3_19_3 road_3_18_3 road_3_17_3 road_3_16_3 road_3_15_3 road_3_14_3 road_3_13_3 road_3_12_3 road_3_11_3 road_3_10_3 road_3_9_3 road_3_8_3 road_3_7_3 road_3_6_3 road_3_5_3 road_3_4_3 road_3_3_3 road_3_2_3 road_3_1_2 road_2_1_3"/>
		</vehicle>
		<vehicle depart="60" id="100">
			<route edges="road_4_29_3 road_4_28_0 road_5_28_3 road_5_27_3 road_5_26_3 road_5_25_2 road_4_25_2 road_3_25_2 road_2_25_3 road_2_24_3 road_2_23_3 road_2_22_3 road_2_21_3 road_2_20_3 road_2_19_3 road_2_18_3 road_2_17_3 road_2_16_3 road_2_15_3 road_2_14_3 road_2_13_3 road_2_12_3 road_2_11_3 road_2_10_3 road_2_9_3 road_2_8_3 road_2_7_3 road_2_6_3 road_2_5_3 road_2_4_3 road_2_3_3 road_2_2_3 road_2_1_2 road_1_1_3"/>
		</vehicle>
		<vehicle depart="60" id="101">
			<route edges="road_6_29_3 road_6_28_0 road_7_28_3 road_7_27_2 road_6_27_2 road_5_27_3 road_5_26_3 road_5_25_2 road_4_25_2 road_3_25_2 road_2_25_3 road_2_24_3 road_2_23_3 road_2_22_3 road_2_21_3 road_2_20_3 road_2_19_3 road_2_18_3 road_2_17_3 road_2_16_3 road_2_15_3 road_2_14_3 road_2_13_3 road_2_12_3 road_2_11_3 road_2_10_3 road_2_9_3 road_2_8_3 road_2_7_2 road_1_7_2"/>
		</vehicle>
		<vehicle depart="60" id="102">
			<route edges="road_0_26_0 road_1_26_0 road_2_26_0 road_3_26_3 road_3_25_3 road_3_24_3 road_3_23_3 road_3_22_3 road_3_21_3 road_3_20_3 road_3_19_3 road_3_18_3 road_3_17_3 road_3_16_3 road_3_15_3 road_3_14_3 road_3_13_3 road_3_12_3 road_3_11_3 road_3_10_3 road_3_9_3 road_3_8_3 road_3_7_3 road_3_6_3 road_3_5_3 road_3_4_3 road_3_3_3 road_3_2_0 road_4_2_0 road_5_2_3 road_5_1_2 road_4_1_3"/>
		</vehicle>
		<vehicle depart="60" id="103">
			<route edges="road_0_4_0 road_1_4_1 road_1_5_1 road_1_6_1 road_1_7_1 road_1_8_1 road_1_9_1 road_1_10_1 road_1_11_1 road_1_12_1 road_1_13_1 road_1_14_1 road_1_15_1 road_1_16_1 road_1_17_1 road_1_18_1 road_1_19_1 road_1_20_1 road_1_21_1 road_1_22_2"/>
		</vehicle>
		<vehicle depart="60" id="104">
			<route edges="road_0_14_0 road_1_14_0 road_2_14_3 road_2_13_3 road_2_12_3 road_2_11_3 road_2_10_3 road_2_9_3 road_2_8_3 road_2_7_3 road_2_6_3 road_2_5_3 road_2_4_3 road_2_3_3 road_2_2_0 road_3_2_0 road_4_2_0 road_5_2_3 road_5_1_2 road_4_1_3"/>
		</vehicle>
		<vehicle depart="60" id="105">
			<route edges="road_0_17_0 road_1_17_0 road_2_17_3 road_2_16_3 road_2_15_3 road_2_14_3 road_2_13_3 road_2_12_3 road_2_11_3 road_2_10_3 road_2_9_3 road_2_8_3 road_2_7_3 road_2_6_3 road_2_5_3 road_2_4_3 road_2_3_3 road_2_2_3 road_2_1_2 road_1_1_3"/>
		</vehicle>
		<vehicle depart="60" id="106">
			<route edges="road_0_21_0 road_1_21_1 road_1_22_1 road_1_23_1 road_1_24_1 road_1_25_1 road_1_26_1 road_1_27_1 road_1_28_0 road_2_28_1"/>
		</vehicle>
		<vehicle depart="60" id="107">
			<route edges="road_0_25_0 road_1_25_1 road_1_26_0 road_2_26_3 road_2_25_3 road_2_24_3 road_2_23_3 road_2_22_3 road_2_21_3 road_2_20_3 road_2_19_3 road_2_18_3 road_2_17_3 road_2_16_3 road_2_15_3 road_2_14_3 road_2_13_3 road_2_12_3 road_2_11_3 road_2_10_3 road_2_9_3 road_2_8_3 road_2_7_3 road_2_6_3 road_2_5_3 road_2_4_3 road_2_3_3 road_2_2_3 road_2_1_2 road_1_1_3"/>
		</vehicle>
		<vehicle depart="60" id="108">
			<route edges="road_2_0_1 road_2_1_2 road_1_1_1 road_1_2_1 road_1_3_1 road_1_4_1 road_1_5_1 road_1_6_1 road_1_7_1 road_1_8_1 road_1_9_1 road_1_10_1 road_1_11_1 road_1_12_1 road_1_13_1 road_1_14_1 road_1_15_1 road_1_16_1 road_1_17_1 road_1_18_1 road_1_19_2"/>
		</vehicle>
		<vehicle depart="61" id="109">
			<route edges="road_0_20_0 road_1_20_0 road_2_20_3 road_2_19_3 road_2_18_3 road_2_17_3 road_2_16_3 road_2_15_3 road_2_14_3 road_2_13_3 road_2_12_3 road_2_11_3 road_2_10_3 road_2_9_3 road_2_8_3 road_2_7_3 road_2_6_3 road_2_5_3 road_2_4_3 road_2_3_3 road_2_2_3 road_2_1_2 road_1_1_3"/>
		</vehicle>
		<vehicle depart="62" id="110">
			<route edges="road_8_2_2 road_7_2_3 road_7_1_3"/>
		</vehicle>
		<vehicle depart="62" id="111">
			<route edges="road_8_6_2 road_7_6_3 road_7_5_2 road_6_5_2 road_5_5_2 road_4_5_2 road_3_5_3 road_3_4_3 road_3_3_3 road_3_2_3 road_3_1_2 road_2_1_2 road_1_1_3"/>
		</vehicle>
		<vehicle depart="62" id="112">
			<route edges="road_8_9_2 road_7_9_2 road_6_9_2 road_5_9_2 road_4_9_2 road_3_9_3 road_3_8_3 road_3_7_3 road_3_6_3 road_3_5_3 road_3_4_3 road_3_3_3 road_3_2_3 road_3_1_2 road_2_1_2 road_1_1_3"/>
		</vehicle>
		<vehicle depart="62" id="113">
			<route edges="road_8_11_2 road_7_11_2 road_6_11_2 road_5_11_3 road_5_10_3 road_5_9_3 road_5_8_3 road_5_7_3 road_5_6_3 road_5_5_3 road_5_4_3 road_5_3_3 road_5_2_3 road_5_1_3"/>
		</vehicle>
		<vehicle depart="62" id="114">
			<route edges="road_8_12_2 road_7_12_3 road_7_11_2 road_6_11_2 road_5_11_2 road_4_11_2 road_3_11_3 road_3_10_3 road_3_9_3 road_3_8_3 road_3_7_3 road_3_6_3 road_3_5_3 road_3_4_3 road_3_3_3 road_3_2_3 road_3_1_2 road_2_1_3"/>
		</vehicle>
		<vehicle depart="62" id="115">
			<route edges="road_8_13_2 road_7_13_2 road_6_13_2 road_5_13_3 road_5_12_3 road_5_11_3 road_5_10_2 road_4_10_2 road_3_10_3 road_3_9_3 road_3_8_3 road_3_7_3 road_3_6_3 road_3_5_3 road_3_4_3 road_3_3_3 road_3_2_3 road_3_1_2 road_2_1_2 road_1_1_3"/>
		</vehicle>