<?xml version="1.0" encoding="utf-8"?>
	<edges xmlns:xsi="http://www.w3.org/2001/XMLSchema-instance" xsi:noNamespaceSchemaLocation="http://sumo.dlr.de/xsd/edges_file.xsd">
		<edge from="intersection_0_1" id="road_0_1_0" numLanes="3" priority="-1" speed="11.111" to="intersection_1_1"/>
		<edge from="intersection_0_2" id="road_0_2_0" numLanes="3" priority="-1" speed="11.111" to="intersection_1_2"/>
		<edge from="intersection_0_3" id="road_0_3_0" numLanes="3" priority="-1" speed="11.111" to="intersection_1_3"/>
		<edge from="intersection_0_4" id="road_0_4_0" numLanes="3" priority="-1" speed="11.111" to="intersection_1_4"/>
		<edge from="intersection_0_5" id="road_0_5_0" numLanes="3" priority="-1" speed="11.111" to="intersection_1_5"/>
		<edge from="intersection_0_6" id="road_0_6_0" numLanes="3" priority="-1" speed="11.111" to="intersection_1_6"/>
		<edge from="intersection_0_7" id="road_0_7_0" numLanes="3" priority="-1" speed="11.111" to="intersection_1_7"/>
		<edge from="intersection_0_8" id="road_0_8_0" numLanes="3" priority="-1" speed="11.111" to="intersection_1_8"/>
		<edge from="intersection_0_9" id="road_0_9_0" numLanes="3" priority="-1" speed="11.111" to="intersection_1_9"/>
		<edge from="intersection_0_10" id="road_0_10_0" numLanes="3" priority="-1" speed="11.111" to="intersection_1_10"/>
		<edge from="intersection_0_11" id="road_0_11_0" numLanes="3" priority="-1" speed="11.111" to="intersection_1_11"/>
		<edge from="intersection_0_12" id="road_0_12_0" numLanes="3" priority="-1" speed="11.111" to="intersection_1_12"/>
		<edge from="intersection_0_13" id="road_0_13_0" numLanes="3" priority="-1" speed="11.111" to="intersection_1_13"/>
		<edge from="intersection_0_14" id="road_0_14_0" numLanes="3" priority="-1" speed="11.111" to="intersection_1_14"/>
		<edge from="intersection_0_15" id="road_0_15_0" numLanes="3" priority="-1" speed="11.111" to="intersection_1_15"/>
		<edge from="intersection_0_16" id="road_0_16_0" numLanes="3" priority="-1" speed="11.111" to="intersection_1_16"/>
		<edge from="intersection_0_17" id="road_0_17_0" numLanes="3" priority="-1" speed="11.111" to="intersection_1_17"/>
		<edge from="intersection_0_18" id="road_0_18_0" numLanes="3" priority="-1" speed="11.111" to="intersection_1_18"/>
		<edge from="intersection_0_19" id="road_0_19_0" numLanes="3" priority="-1" speed="11.111" to="intersection_1_19"/>
		<edge from="intersection_0_20" id="road_0_20_0" numLanes="3" priority="-1" speed="11.111" to="intersection_1_20"/>
		<edge from="intersection_0_21" id="road_0_21_0" numLanes="3" priority="-1" speed="11.111" to="intersection_1_21"/>
		<edge from="intersection_0_22" id="road_0_22_0" numLanes="3" priority="-1" speed="11.111" to="intersection_1_22"/>
		<edge from="intersection_0_23" id="road_0_23_0" numLanes="3" priority="-1" speed="11.111" to="intersection_1_23"/>
		<edge from="intersection_0_24" id="road_0_24_0" numLanes="3" priority="-1" speed="11.111" to="intersection_1_24"/>
		<edge from="intersection_0_25" id="road_0_25_0" numLanes="3" priority="-1" speed="11.111" to="intersection_1_25"/>
		<edge from="intersection_0_26" id="road_0_26_0" numLanes="3" priority="-1" speed="11.111" to="intersection_1_26"/>
		<edge from="intersection_0_27" id="road_0_27_0" numLanes="3" priority="-1" speed="11.111" to="intersection_1_27"/>
		<edge from="intersection_0_28" id="road_0_28_0" numLanes="3" priority="-1" speed="11.111" to="intersection_1_28"/>
		<edge from="intersection_1_0" id="road_1_0_1" numLanes="3" priority="-1" speed="11.111" to="intersection_1_1"/>
		<edge from="intersection_1_1" id="road_1_1_0" numLanes="3" priority="-1" speed="11.111" to="intersection_2_1"/>
		<edge from="intersection_1_1" id="road_1_1_1" numLanes="3" priority="-1" speed="11.111" to="intersection_1_2"/>
		<edge from="intersection_1_1" id="road_1_1_2" numLanes="3" priority="-1" speed="11.111" to="intersection_0_1"/>
		<edge from="intersection_1_1" id="road_1_1_3" numLanes="3" priority="-1" speed="11.111" to="intersection_1_0"/>
		<edge from="intersection_1_2" id="road_1_2_0" numLanes="3" priority="-1" speed="11.111" to="intersection_2_2"/>
		<edge from="intersection_1_2" id="road_1_2_1" numLanes="3" priority="-1" speed="11.111" to="intersection_1_3"/>
		<edge from="intersection_1_2" id="road_1_2_2" numLanes="3" priority="-1" speed="11.111" to="intersection_0_2"/>
		<edge from="intersection_1_2" id="road_1_2_3" numLanes="3" priority="-1" speed="11.111" to="intersection_1_1"/>
		<edge from="intersection_1_3" id="road_1_3_0" numLanes="3" priority="-1" speed="11.111" to="intersection_2_3"/>
		<edge from="intersection_1_3" id="road_1_3_1" numLanes="3" priority="-1" speed="11.111" to="intersection_1_4"/>
		<edge from="intersection_1_3" id="road_1_3_2" numLanes="3" priority="-1" speed="11.111" to="intersection_0_3"/>
		<edge from="intersection_1_3" id="road_1_3_3" numLanes="3" priority="-1" speed="11.111" to="intersection_1_2"/>
		<edge from="intersection_1_4" id="road_1_4_0" numLanes="3" priority="-1" speed="11.111" to="intersection_2_4"/>
		<edge from="intersection_1_4" id="road_1_4_1" numLanes="3" priority="-1" speed="11.111" to="intersection_1_5"/>
		<edge from="intersection_1_4" id="road_1_4_2" numLanes="3" priority="-1" speed="11.111" to="intersection_0_4"/>
		<edge from="intersection_1_4" id="road_1_4_3" numLanes="3" priority="-1" speed="11.111" to="intersection_1_3"/>
		<edge from="intersection_1_5" id="road_1_5_0" numLanes="3" priority="-1" speed="11.111" to="intersection_2_5"/>
		<edge from="intersection_1_5" id="road_1_5_1" numLanes="3" priority="-1" speed="11.111" to="intersection_1_6"/>
		<edge from="intersection_1_5" id="road_1_5_2" numLanes="3" priority="-1" speed="11.111" to="intersection_0_5"/>
		<edge from="intersection_1_5" id="road_1_5_3" numLanes="3" priority="-1" speed="11.111" to="intersection_1_4"/>
		<edge from="intersection_1_6" id="road_1_6_0" numLanes="3" priority="-1" speed="11.111" to="intersection_2_6"/>
		<edge from="intersection_1_6" id="road_1_6_1" numLanes="3" priority="-1" speed="11.111" to="intersection_1_7"/>
		<edge from="intersection_1_6" id="road_1_6_2" numLanes="3" priority="-1" speed="11.111" to="intersection_0_6"/>
		<edge from="intersection_1_6" id="road_1_6_3" numLanes="3" priority="-1" speed="11.111" to="intersection_1_5"/>
		<edge from="intersection_1_7" id="road_1_7_0" numLanes="3" priority="-1" speed="11.111" to="intersection_2_7"/>
		<edge from="intersection_1_7" id="road_1_7_1" numLanes="3" priority="-1" speed="11.111" to="intersection_1_8"/>
		<edge from="intersection_1_7" id="road_1_7_2" numLanes="3" priority="-1" speed="11.111" to="intersection_0_7"/>
		<edge from="intersection_1_7" id="road_1_7_3" numLanes="3" priority="-1" speed="11.111" to="intersection_1_6"/>
		<edge from="intersection_1_8" id="road_1_8_0" numLanes="3" priority="-1" speed="11.111" to="intersection_2_8"/>
		<edge from="intersection_1_8" id="road_1_8_1" numLanes="3" priority="-1" speed="11.111" to="intersection_1_9"/>
		<edge from="intersection_1_8" id="road_1_8_2" numLanes="3" priority="-1" speed="11.111" to="intersection_0_8"/>
		<edge from="intersection_1_8" id="road_1_8_3" numLanes="3" priority="-1" speed="11.111" to="intersection_1_7"/>
		<edge from="intersection_1_9" id="road_1_9_0" numLanes="3" priority="-1" speed="11.111" to="intersection_2_9"/>
		<edge from="intersection_1_9" id="road_1_9_1" numLanes="3" priority="-1" speed="11.111" to="intersection_1_10"/>
		<edge from="intersection_1_9" id="road_1_9_2" numLanes="3" priority="-1" speed="11.111" to="intersection_0_9"/>
		<edge from="intersection_1_9" id="road_1_9_3" numLanes="3" priority="-1" speed="11.111" to="intersection_1_8"/>
		<edge from="intersection_1_10" id="road_1_10_0" numLanes="3" priority="-1" speed="11.111" to="intersection_2_10"/>
		<edge from="intersection_1_10" id="road_1_10_1" numLanes="3" priority="-1" speed="11.111" to="intersection_1_11"/>
		<edge from="intersection_1_10" id="road_1_10_2" numLanes="3" priority="-1" speed="11.111" to="intersection_0_10"/>
		<edge from="intersection_1_10" id="road_1_10_3" numLanes="3" priority="-1" speed="11.111" to="intersection_1_9"/>
		<edge from="intersection_1_11" id="road_1_11_0" numLanes="3" priority="-1" speed="11.111" to="intersection_2_11"/>
		<edge from="intersection_1_11" id="road_1_11_1" numLanes="3" priority="-1" speed="11.111" to="intersection_1_12"/>
		<edge from="intersection_1_11" id="road_1_11_2" numLanes="3" priority="-1" speed="11.111" to="intersection_0_11"/>
		<edge from="intersection_1_11" id="road_1_11_3" numLanes="3" priority="-1" speed="11.111" to="intersection_1_10"/>
		<edge from="intersection_1_12" id="road_1_12_0" numLanes="3" priority="-1" speed="11.111" to="intersection_2_12"/>
		<edge from="intersection_1_12" id="road_1_12_1" numLanes="3" priority="-1" speed="11.111" to="intersection_1_13"/>
		<edge from="intersection_1_12" id="road_1_12_2" numLanes="3" priority="-1" speed="11.111" to="intersection_0_12"/>
		<edge from="intersection_1_12" id="road_1_12_3" numLanes="3" priority="-1" speed="11.111" to="intersection_1_11"/>
		<edge from="intersection_1_13" id="road_1_13_0" numLanes="3" priority="-1" speed="11.111" to="intersection_2_13"/>
		<edge from="intersection_1_13" id="road_1_13_1" numLanes="3" priority="-1" speed="11.111" to="intersection_1_14"/>
		<edge from="intersection_1_13" id="road_1_13_2" numLanes="3" priority="-1" speed="11.111" to="intersection_0_13"/>
		<edge from="intersection_1_13" id="road_1_13_3" numLanes="3" priority="-1" speed="11.111" to="intersection_1_12"/>
		<edge from="intersection_1_14" id="road_1_14_0" numLanes="3" priority="-1" speed="11.111" to="intersection_2_14"/>
		<edge from="intersection_1_14" id="road_1_14_1" numLanes="3" priority="-1" speed="11.111" to="intersection_1_15"/>
		<edge from="intersection_1_14" id="road_1_14_2" numLanes="3" priority="-1" speed="11.111" to="intersection_0_14"/>
		<edge from="intersection_1_14" id="road_1_14_3" numLanes="3" priority="-1" speed="11.111" to="intersection_1_13"/>
		<edge from="intersection_1_15" id="road_1_15_0" numLanes="3" priority="-1" speed="11.111" to="intersection_2_15"/>
		<edge from="intersection_1_15" id="road_1_15_1" numLanes="3" priority="-1" speed="11.111" to="intersection_1_16"/>
		<edge from="intersection_1_15" id="road_1_15_2" numLanes="3" priority="-1" speed="11.111" to="intersection_0_15"/>
		<edge from="intersection_1_15" id="road_1_15_3" numLanes="3" priority="-1" speed="11.111" to="intersection_1_14"/>
		<edge from="intersection_1_16" id="road_1_16_0" numLanes="3" priority="-1" speed="11.111" to="intersection_2_16"/>
		<edge from="intersection_1_16" id="road_1_16_1" numLanes="3" priority="-1" speed="11.111" to="intersection_1_17"/>
		<edge from="intersection_1_16" id="road_1_16_2" numLanes="3" priority="-1" speed="11.111" to="intersection_0_16"/>
		<edge from="intersection_1_16" id="road_1_16_3" numLanes="3" priority="-1" speed="11.111" to="intersection_1_15"/>
		<edge from="intersection_1_17" id="road_1_17_0" numLanes="3" priority="-1" speed="11.111" to="intersection_2_17"/>
		<edge from="intersection_1_17" id="road_1_17_1" numLanes="3" priority="-1" speed="11.111" to="intersection_1_18"/>
		<edge from="intersection_1_17" id="road_1_17_2" numLanes="3" priority="-1" speed="11.111" to="intersection_0_17"/>
		<edge from="intersection_1_17" id="road_1_17_3" numLanes="3" priority="-1" speed="11.111" to="intersection_1_16"/>
		<edge from="intersection_1_18" id="road_1_18_0" numLanes="3" priority="-1" speed="11.111" to="intersection_2_18"/>
		<edge from="intersection_1_18" id="road_1_18_1" numLanes="3" priority="-1" speed="11.111" to="intersection_1_19"/>
		<edge from="intersection_1_18" id="road_1_18_2" numLanes="3" priority="-1" speed="11.111" to="intersection_0_18"/>
		<edge from="intersection_1_18" id="road_1_18_3" numLanes="3" priority="-1" speed="11.111" to="intersection_1_17"/>
		<edge from="intersection_1_19" id="road_1_19_0" numLanes="3" priority="-1" speed="11.111" to="intersection_2_19"/>
		<edge from="intersection_1_19" id="road_1_19_1" numLanes="3" priority="-1" speed="11.111" to="intersection_1_20"/>
		<edge from="intersection_1_19" id="road_1_19_2" numLanes="3" priority="-1" speed="11.111" to="intersection_0_19"/>
		<edge from="intersection_1_19" id="road_1_19_3" numLanes="3" priority="-1" speed="11.111" to="intersection_1_18"/>
		<edge from="intersection_1_20" id="road_1_20_0" numLanes="3" priority="-1" speed="11.111" to="intersection_2_20"/>
		<edge from="intersection_1_20" id="road_1_20_1" numLanes="3" priority="-1" speed="11.111" to="intersection_1_21"/>
		<edge from="intersection_1_20" id="road_1_20_2" numLanes="3" priority="-1" speed="11.111" to="intersection_0_20"/>
		<edge from="intersection_1_20" id="road_1_20_3" numLanes="3" priority="-1" speed="11.111" to="intersection_1_19"/>
		<edge from="intersection_1_21" id="road_1_21_0" numLanes="3" priority="-1" speed="11.111" to="intersection_2_21"/>
		<edge from="intersection_1_21" id="road_1_21_1" numLanes="3" priority="-1" speed="11.111" to="intersection_1_22"/>
		<edge from="intersection_1_21" id="road_1_21_2" numLanes="3" priority="-1" speed="11.111" to="intersection_0_21"/>
		<edge from="intersection_1_21" id="road_1_21_3" numLanes="3" priority="-1" speed="11.111" to="intersection_1_20"/>
		<edge from="intersection_1_22" id="road_1_22_0" numLanes="3" priority="-1" speed="11.111" to="intersection_2_22"/>
		<edge from="intersection_1_22" id="road_1_22_1" numLanes="3" priority="-1" speed="11.111" to="intersection_1_23"/>
		<edge from="intersection_1_22" id="road_1_22_2" numLanes="3" priority="-1" speed="11.111" to="intersection_0_22"/>
		<edge from="intersection_1_22" id="road_1_22_3" numLanes="3" priority="-1" speed="11.111" to="intersection_1_21"/>
		<edge from="intersection_1_23" id="road_1_23_0" numLanes="3" priority="-1" speed="11.111" to="intersection_2_23"/>
		<edge from="intersection_1_23" id="road_1_23_1" numLanes="3" priority="-1" speed="11.111" to="intersection_1_24"/>
		<edge from="intersection_1_23" id="road_1_23_2" numLanes="3" priority="-1" speed="11.111" to="intersection_0_23"/>
		<edge from="intersection_1_23" id="road_1_23_3" numLanes="3" priority="-1" speed="11.111" to="intersection_1_22"/>
		<edge from="intersection_1_24" id="road_1_24_0" numLanes="3" priority="-1" speed="11.111" to="intersection_2_24"/>
		<edge from="intersection_1_24" id="road_1_24_1" numLanes="3" priority="-1" speed="11.111" to="intersection_1_25"/>
		<edge from="intersection_1_24" id="road_1_24_2" numLanes="3" priority="-1" speed="11.111" to="intersection_0_24"/>
		<edge from="intersection_1_24" id="road_1_24_3" numLanes="3" priority="-1" speed="11.111" to="intersection_1_23"/>
		<edge from="intersection_1_25" id="road_1_25_0" numLanes="3" priority="-1" speed="11.111" to="intersection_2_25"/>
		<edge from="intersection_1_25" id="road_1_25_1" numLanes="3" priority="-1" speed="11.111" to="intersection_1_26"/>
		<edge from="intersection_1_25" id="road_1_25_2" numLanes="3" priority="-1" speed="11.111" to="intersection_0_25"/>
		<edge from="intersection_1_25" id="road_1_25_3" numLanes="3" priority="-1" speed="11.111" to="intersection_1_24"/>
		<edge from="intersection_1_26" id="road_1_26_0" numLanes="3" priority="-1" speed="11.111" to="intersection_2_26"/>
		<edge from="intersection_1_26" id="road_1_26_1" numLanes="3" priority="-1" speed="11.111" to="intersection_1_27"/>
		<edge from="intersection_1_26" id="road_1_26_2" numLanes="3" priority="-1" speed="11.111" to="intersection_0_26"/>
		<edge from="intersection_1_26" id="road_1_26_3" numLanes="3" priority="-1" speed="11.111" to="intersection_1_25"/>
		<edge from="intersection_1_27" id="road_1_27_0" numLanes="3" priority="-1" speed="11.111" to="intersection_2_27"/>
		<edge from="intersection_1_27" id="road_1_27_1" numLanes="3" priority="-1" speed="11.111" to="intersection_1_28"/>
		<edge from="intersection_1_27" id="road_1_27_2" numLanes="3" priority="-1" speed="11.111" to="intersection_0_27"/>
		<edge from="intersection_1_27" id="road_1_27_3" numLanes="3" priority="-1" speed="11.111" to="intersection_1_26"/>
		<edge from="intersection_1_28" id="road_1_28_0" numLanes="3" priority="-1" speed="11.111" to="intersection_2_28"/>
		<edge from="intersection_1_28" id="road_1_28_1" numLanes="3" priority="-1" speed="11.111" to="intersection_1_29"/>
		<edge from="intersection_1_28" id="road_1_28_2" numLanes="3" priority="-1" speed="11.111" to="intersection_0_28"/>
		<edge from="intersection_1_28" id="road_1_28_3" numLanes="3" priority="-1" speed="11.111" to="intersection_1_27"/>
		<edge from="intersection_1_29" id="road_1_29_3" numLanes="3" priority="-1" speed="11.111" to="intersection_1_28"/>
		<edge from="intersection_2_0" id="road_2_0_1" numLanes="3" priority="-1" speed="11.111" to="intersection_2_1"/>
		<edge from="intersection_2_1" id="road_2_1_0" numLanes="3" priority="-1" speed="11.111" to="intersection_3_1"/>
		<edge from="intersection_2_1" id="road_2_1_1" numLanes="3" priority="-1" speed="11.111" to="intersection_2_2"/>
		<edge from="intersection_2_1" id="road_2_1_2" numLanes="3" priority="-1" speed="11.111" to="intersection_1_1"/>
		<edge from="intersection_2_1" id="road_2_1_3" numLanes="3" priority="-1" speed="11.111" to="intersection_2_0"/>
		<edge from="intersection_2_2" id="road_2_2_0" numLanes="3" priority="-1" speed="11.111" to="intersection_3_2"/>
		<edge from="intersection_2_2" id="road_2_2_1" numLanes="3" priority="-1" speed="11.111" to="intersection_2_3"/>
		<edge from="intersection_2_2" id="road_2_2_2" numLanes="3" priority="-1" speed="11.111" to="intersection_1_2"/>
		<edge from="intersection_2_2" id="road_2_2_3" numLanes="3" priority="-1" speed="11.111" to="intersection_2_1"/>
		<edge from="intersection_2_3" id="road_2_3_0" numLanes="3" priority="-1" speed="11.111" to="intersection_3_3"/>
		<edge from="intersection_2_3" id="road_2_3_1" numLanes="3" priority="-1" speed="11.111" to="intersection_2_4"/>
		<edge from="intersection_2_3" id="road_2_3_2" numLanes="3" priority="-1" speed="11.111" to="intersection_1_3"/>
		<edge from="intersection_2_3" id="road_2_3_3" numLanes="3" priority="-1" speed="11.111" to="intersection_2_2"/>
		<edge from="intersection_2_4" id="road_2_4_0" numLanes="3" priority="-1" speed="11.111" to="intersection_3_4"/>
		<edge from="intersection_2_4" id="road_2_4_1" numLanes="3" priority="-1" speed="11.111" to="intersection_2_5"/>
		<edge from="intersection_2_4" id="road_2_4_2" numLanes="3" priority="-1" speed="11.111" to="intersection_1_4"/>
		<edge from="intersection_2_4" id="road_2_4_3" numLanes="3" priority="-1" speed="11.111" to="intersection_2_3"/>
		<edge from="intersection_2_5" id="road_2_5_0" numLanes="3" priority="-1" speed="11.111" to="intersection_3_5"/>
		<edge from="intersection_2_5" id="road_2_5_1" numLanes="3" priority="-1" speed="11.111" to="intersection_2_6"/>
		<edge from="intersection_2_5" id="road_2_5_2" numLanes="3" priority="-1" speed="11.111" to="intersection_1_5"/>
		<edge from="intersection_2_5" id="road_2_5_3" numLanes="3" priority="-1" speed="11.111" to="intersection_2_4"/>
		<edge from="intersection_2_6" id="road_2_6_0" numLanes="3" priority="-1" speed="11.111" to="intersection_3_6"/>
		<edge from="intersection_2_6" id="road_2_6_1" numLanes="3" priority="-1" speed="11.111" to="intersection_2_7"/>
		<edge from="intersection_2_6" id="road_2_6_2" numLanes="3" priority="-1" speed="11.111" to="intersection_1_6"/>
		<edge from="intersection_2_6" id="road_2_6_3" numLanes="3" priority="-1" speed="11.111" to="intersection_2_5"/>
		<edge from="intersection_2_7" id="road_2_7_0" numLanes="3" priority="-1" speed="11.111" to="intersection_3_7"/>
		<edge from="intersection_2_7" id="road_2_7_1" numLanes="3" priority="-1" speed="11.111" to="intersection_2_8"/>
		<edge from="intersection_2_7" id="road_2_7_2" numLanes="3" priority="-1" speed="11.111" to="intersection_1_7"/>
		<edge from="intersection_2_7" id="road_2_7_3" numLanes="3" priority="-1" speed="11.111" to="intersection_2_6"/>
		<edge from="intersection_2_8" id="road_2_8_0" numLanes="3" priority="-1" speed="11.111" to="intersection_3_8"/>
		<edge from="intersection_2_8" id="road_2_8_1" numLanes="3" priority="-1" speed="11.111" to="intersection_2_9"/>
		<edge from="intersection_2_8" id="road_2_8_2" numLanes="3" priority="-1" speed="11.111" to="intersection_1_8"/>
		<edge from="intersection_2_8" id="road_2_8_3" numLanes="3" priority="-1" speed="11.111" to="intersection_2_7"/>
		<edge from="intersection_2_9" id="road_2_9_0" numLanes="3" priority="-1" speed="11.111" to="intersection_3_9"/>
		<edge from="intersection_2_9" id="road_2_9_1" numLanes="3" priority="-1" speed="11.111" to="intersection_2_10"/>
		<edge from="intersection_2_9" id="road_2_9_2" numLanes="3" priority="-1" speed="11.111" to="intersection_1_9"/>
		<edge from="intersection_2_9" id="road_2_9_3" numLanes="3" priority="-1" speed="11.111" to="intersection_2_8"/>
		<edge from="intersection_2_10" id="road_2_10_0" numLanes="3" priority="-1" speed="11.111" to="intersection_3_10"/>
		<edge from="intersection_2_10" id="road_2_10_1" numLanes="3" priority="-1" speed="11.111" to="intersection_2_11"/>
		<edge from="intersection_2_10" id="road_2_10_2" numLanes="3" priority="-1" speed="11.111" to="intersection_1_10"/>
		<edge from="intersection_2_10" id="road_2_10_3" numLanes="3" priority="-1" speed="11.111" to="intersection_2_9"/>
		<edge from="intersection_2_11" id="road_2_11_0" numLanes="3" priority="-1" speed="11.111" to="intersection_3_11"/>
		<edge from="intersection_2_11" id="road_2_11_1" numLanes="3" priority="-1" speed="11.111" to="intersection_2_12"/>
		<edge from="intersection_2_11" id="road_2_11_2" numLanes="3" priority="-1" speed="11.111" to="intersection_1_11"/>
		<edge from="intersection_2_11" id="road_2_11_3" numLanes="3" priority="-1" speed="11.111" to="intersection_2_10"/>
		<edge from="intersection_2_12" id="road_2_12_0" numLanes="3" priority="-1" speed="11.111" to="intersection_3_12"/>
		<edge from="intersection_2_12" id="road_2_12_1" numLanes="3" priority="-1" speed="11.111" to="intersection_2_13"/>
		<edge from="intersection_2_12" id="road_2_12_2" numLanes="3" priority="-1" speed="11.111" to="intersection_1_12"/>
		<edge from="intersection_2_12" id="road_2_12_3" numLanes="3" priority="-1" speed="11.111" to="intersection_2_11"/>
		<edge from="intersection_2_13" id="road_2_13_0" numLanes="3" priority="-1" speed="11.111" to="intersection_3_13"/>
		<edge from="intersection_2_13" id="road_2_13_1" numLanes="3" priority="-1" speed="11.111" to="intersection_2_14"/>
		<edge from="intersection_2_13" id="road_2_13_2" numLanes="3" priority="-1" speed="11.111" to="intersection_1_13"/>
		<edge from="intersection_2_13" id="road_2_13_3" numLanes="3" priority="-1" speed="11.111" to="intersection_2_12"/>
		<edge from="intersection_2_14" id="road_2_14_0" numLanes="3" priority="-1" speed="11.111" to="intersection_3_14"/>
		<edge from="intersection_2_14" id="road_2_14_1" numLanes="3" priority="-1" speed="11.111" to="intersection_2_15"/>
		<edge from="intersection_2_14" id="road_2_14_2" numLanes="3" priority="-1" speed="11.111" to="intersection_1_14"/>
		<edge from="intersection_2_14" id="road_2_14_3" numLanes="3" priority="-1" speed="11.111" to="intersection_2_13"/>
		<edge from="intersection_2_15" id="road_2_15_0" numLanes="3" priority="-1" speed="11.111" to="intersection_3_15"/>
		<edge from="intersection_2_15" id="road_2_15_1" numLanes="3" priority="-1" speed="11.111" to="intersection_2_16"/>
		<edge from="intersection_2_15" id="road_2_15_2" numLanes="3" priority="-1" speed="11.111" to="intersection_1_15"/>
		<edge from="intersection_2_15" id="road_2_15_3" numLanes="3" priority="-1" speed="11.111" to="intersection_2_14"/>
		<edge from="intersection_2_16" id="road_2_16_0" numLanes="3" priority="-1" speed="11.111" to="intersection_3_16"/>
		<edge from="intersection_2_16" id="road_2_16_1" numLanes="3" priority="-1" speed="11.111" to="intersection_2_17"/>
		<edge from="intersection_2_16" id="road_2_16_2" numLanes="3" priority="-1" speed="11.111" to="intersection_1_16"/>
		<edge from="intersection_2_16" id="road_2_16_3" numLanes="3" priority="-1" speed="11.111" to="intersection_2_15"/>
		<edge from="intersection_2_17" id="road_2_17_0" numLanes="3" priority="-1" speed="11.111" to="intersection_3_17"/>
		<edge from="intersection_2_17" id="road_2_17_1" numLanes="3" priority="-1" speed="11.111" to="intersection_2_18"/>
		<edge from="intersection_2_17" id="road_2_17_2" numLanes="3" priority="-1" speed="11.111" to="intersection_1_17"/>
		<edge from="intersection_2_17" id="road_2_17_3" numLanes="3" priority="-1" speed="11.111" to="intersection_2_16"/>
		<edge from="intersection_2_18" id="road_2_18_0" numLanes="3" priority="-1" speed="11.111" to="intersection_3_18"/>
		<edge from="intersection_2_18" id="road_2_18_1" numLanes="3" priority="-1" speed="11.111" to="intersection_2_19"/>
		<edge from="intersection_2_18" id="road_2_18_2" numLanes="3" priority="-1" speed="11.111" to="intersection_1_18"/>
		<edge from="intersection_2_18" id="road_2_18_3" numLanes="3" priority="-1" speed="11.111" to="intersection_2_17"/>
		<edge from="intersection_2_19" id="road_2_19_0" numLanes="3" priority="-1" speed="11.111" to="intersection_3_19"/>
		<edge from="intersection_2_19" id="road_2_19_1" numLanes="3" priority="-1" speed="11.111" to="intersection_2_20"/>
		<edge from="intersection_2_19" id="road_2_19_2" numLanes="3" priority="-1" speed="11.111" to="intersection_1_19"/>
		<edge from="intersection_2_19" id="road_2_19_3" numLanes="3" priority="-1" speed="11.111" to="intersection_2_18"/>
		<edge from="intersection_2_20" id="road_2_20_0" numLanes="3" priority="-1" speed="11.111" to="intersection_3_20"/>
		<edge from="intersection_2_20" id="road_2_20_1" numLanes="3" priority="-1" speed="11.111" to="intersection_2_21"/>
		<edge from="intersection_2_20" id="road_2_20_2" numLanes="3" priority="-1" speed="11.111" to="intersection_1_20"/>
		<edge from="intersection_2_20" id="road_2_20_3" numLanes="3" priority="-1" speed="11.111" to="intersection_2_19"/>
		<edge from="intersection_2_21" id="road_2_21_0" numLanes="3" priority="-1" speed="11.111" to="intersection_3_21"/>
		<edge from="intersection_2_21" id="road_2_21_1" numLanes="3" priority="-1" speed="11.111" to="intersection_2_22"/>
		<edge from="intersection_2_21" id="road_2_21_2" numLanes="3" priority="-1" speed="11.111" to="intersection_1_21"/>
		<edge from="intersection_2_21" id="road_2_21_3" numLanes="3" priority="-1" speed="11.111" to="intersection_2_20"/>
		<edge from="intersection_2_22" id="road_2_22_0" numLanes="3" priority="-1" speed="11.111" to="intersection_3_22"/>
		<edge from="intersection_2_22" id="road_2_22_1" numLanes="3" priority="-1" speed="11.111" to="intersection_2_23"/>
		<edge from="intersection_2_22" id="road_2_22_2" numLanes="3" priority="-1" speed="11.111" to="intersection_1_22"/>
		<edge from="intersection_2_22" id="road_2_22_3" numLanes="3" priority="-1" speed="11.111" to="intersection_2_21"/>
		<edge from="intersection_2_23" id="road_2_23_0" numLanes="3" priority="-1" speed="11.111" to="intersection_3_23"/>
		<edge from="intersection_2_23" id="road_2_23_1" numLanes="3" priority="-1" speed="11.111" to="intersection_2_24"/>
		<edge from="intersection_2_23" id="road_2_23_2" numLanes="3" priority="-1" speed="11.111" to="intersection_1_23"/>
		<edge from="intersection_2_23" id="road_2_23_3" numLanes="3" priority="-1" speed="11.111" to="intersection_2_22"/>
		<edge from="intersection_2_24" id="road_2_24_0" numLanes="3" priority="-1" speed="11.111" to="intersection_3_24"/>
		<edge from="intersection_2_24" id="road_2_24_1" numLanes="3" priority="-1" speed="11.111" to="intersection_2_25"/>
		<edge from="intersection_2_24" id="road_2_24_2" numLanes="3" priority="-1" speed="11.111" to="intersection_1_24"/>
		<edge from="intersection_2_24" id="road_2_24_3" numLanes="3" priority="-1" speed="11.111" to="intersection_2_23"/>
		<edge from="intersection_2_25" id="road_2_25_0" numLanes="3" priority="-1" speed="11.111" to="intersection_3_25"/>
		<edge from="intersection_2_25" id="road_2_25_1" numLanes="3" priority="-1" speed="11.111" to="intersection_2_26"/>
		<edge from="intersection_2_25" id="road_2_25_2" numLanes="3" priority="-1" speed="11.111" to="intersection_1_25"/>
		<edge from="intersection_2_25" id="road_2_25_3" numLanes="3" priority="-1" speed="11.111" to="intersection_2_24"/>
		<edge from="intersection_2_26" id="road_2_26_0" numLanes="3" priority="-1" speed="11.111" to="intersection_3_26"/>
		<edge from="intersection_2_26" id="road_2_26_1" numLanes="3" priority="-1" speed="11.111" to="intersection_2_27"/>
		<edge from="intersection_2_26" id="road_2_26_2" numLanes="3" priority="-1" speed="11.111" to="intersection_1_26"/>
		<edge from="intersection_2_26" id="road_2_26_3" numLanes="3" priority="-1" speed="11.111" to="intersection_2_25"/>
		<edge from="intersection_2_27" id="road_2_27_0" numLanes="3" priority="-1" speed="11.111" to="intersection_3_27"/>
		<edge from="intersection_2_27" id="road_2_27_1" numLanes="3" priority="-1" speed="11.111" to="intersection_2_28"/>
		<edge from="intersection_2_27" id="road_2_27_2" numLanes="3" priority="-1" speed="11.111" to="intersection_1_27"/>
		<edge from="intersection_2_27" id="road_2_27_3" numLanes="3" priority="-1" speed="11.111" to="intersection_2_26"/>
		<edge from="intersection_2_28" id="road_2_28_0" numLanes="3" priority="-1" speed="11.111" to="intersection_3_28"/>
		<edge from="intersection_2_28" id="road_2_28_1" numLanes="3" priority="-1" speed="11.111" to="intersection_2_29"/>
		<edge from="intersection_2_28" id="road_2_28_2" numLanes="3" priority="-1" speed="11.111" to="intersection_1_28"/>
		<edge from="intersection_2_28" id="road_2_28_3" numLanes="3" priority="-1" speed="11.111" to="intersection_2_27"/>
		<edge from="intersection_2_29" id="road_2_29_3" numLanes="3" priority="-1" speed="11.111" to="intersection_2_28"/>
		<edge from="intersection_3_0" id="road_3_0_1" numLanes="3" priority="-1" speed="11.111" to="intersection_3_1"/>