<?xml version="1.0" encoding="utf-8"?>
	<routes xmlns:xsi="http://www.w3.org/2001/XMLSchema-instance" xsi:noNamespaceSchemaLocation="http://sumo.dlr.de/xsd/routes_file.xsd">
		<vType accel="2.0" decel="4.5" id="pkw" length="5.0" maxSpeed="11.111" minGap="2.5" width="2.0"/>
		<vehicle depart="1" id="0">
			<route edges="road_2_1_2 road_1_1_2"/>
		</vehicle>
		<vehicle depart="5" id="1">
			<route edges="road_2_1_2 road_1_1_2"/>
		</vehicle>
		<vehicle depart="7" id="2">
			<route edges="road_2_1_2 road_1_1_2"/>
		</vehicle>
		<vehicle depart="9" id="3">
			<route edges="road_2_1_2 road_1_1_2"/>
		</vehicle>
		<vehicle depart="13" id="4">
			<route edges="road_0_1_0 road_1_1_0"/>
		</vehicle>
		<vehicle depart="14" id="5">
			<route edges="road_2_1_2 road_1_1_2"/>
		</vehicle>
		<vehicle depart="17" id="6">
			<route edges="road_2_1_2 road_1_1_2"/>
		</vehicle>
		<vehicle depart="19" id="7">
			<route edges="road_2_1_2 road_1_1_2"/>
		</vehicle>
		<vehicle depart="20" id="8">
			<route edges="road_2_1_2 road_1_1_2"/>
		</vehicle>
		<vehicle depart="20" id="9">
			<route edges="road_2_1_2 road_1_1_3"/>
		</vehicle>
		<vehicle depart="22" id="10">
			<route edges="road_2_1_2 road_1_1_2"/>
		</vehicle>
		<vehicle depart="26" id="11">
			<route edges="road_2_1_2 road_1_1_2"/>
		</vehicle>
		<vehicle depart="28" id="12">
			<route edges="road_2_1_2 road_1_1_2"/>
		</vehicle>
		<vehicle depart="28" id="13">
			<route edges="road_0_1_0 road_1_1_0"/>
		</vehicle>
		<vehicle depart="30" id="14">
			<route edges="road_2_1_2 road_1_1_2"/>
		</vehicle>
		<vehicle depart="34" id="15">
			<route edges="road_1_0_1 road_1_1_1"/>
		</vehicle>
		<vehicle depart="37" id="16">
			<route edges="road_1_0_1 road_1_1_1"/>
		</vehicle>
		<vehicle depart="41" id="17">
			<route edges="road_1_2_3 road_1_1_3"/>
		</vehicle>
		<vehicle depart="42" id="18">
			<route edges="road_0_1_0 road_1_1_0"/>
		</vehicle>
		<vehicle depart="44" id="19">
			<route edges="road_1_2_3 road_1_1_3"/>
		</vehicle>
		<vehicle depart="51" id="20">
			<route edges="road_1_2_3 road_1_1_3"/>
		</vehicle>
		<vehicle depart="51" id="21">
			<route edges="road_1_2_3 road_1_1_0"/>
		</vehicle>
		<vehicle depart="59" id="22">
			<route edges="road_1_2_3 road_1_1_3"/>
		</vehicle>
		<vehicle depart="59" id="23">
			<route edges="road_1_2_3 road_1_1_0"/>
		</vehicle>
		<vehicle depart="59" id="24">
			<route edges="road_1_0_1 road_1_1_1"/>
		</vehicle>
		<vehicle depart="68" id="25">
			<route edges="road_0_1_0 road_1_1_0"/>
		</vehicle>
		<vehicle depart="77" id="26">
			<route edges="road_1_0_1 road_1_1_1"/>
		</vehicle>
		<vehicle depart="81" id="27">
			<route edges="road_1_2_3 road_1_1_3"/>
		</vehicle>
		<vehicle depart="82" id="28">
			<route edges="road_1_0_1 road_1_1_1"/>
		</vehicle>
		<vehicle depart="84" id="29">
			<route edges="road_1_0_1 road_1_1_1"/>
		</vehicle>
		<vehicle depart="84" id="30">
			<route edges="road_0_1_0 road_1_1_0"/>
		</vehicle>
		<vehicle depart="86" id="31">
			<route edges="road_1_2_3 road_1_1_3"/>
		</vehicle>
		<vehicle depart="89" id="32">
			<route edges="road_1_2_3 road_1_1_3"/>
		</vehicle>
		<vehicle depart="89" id="33">
			<route edges="road_1_2_3 road_1_1_0"/>
		</vehicle>
		<vehicle depart="91" id="34">
			<route edges="road_1_2_3 road_1_1_3"/>
		</vehicle>
		<vehicle depart="91" id="35">
			<route edges="road_1_0_1 road_1_1_1"/>
		</vehicle>
		<vehicle depart="94" id="36">
			<route edges="road_1_0_1 road_1_1_1"/>
		</vehicle>
		<vehicle depart="95" id="37">
			<route edges="road_1_2_3 road_1_1_3"/>
		</vehicle>
		<vehicle depart="96" id="38">
			<route edges="road_2_1_2 road_1_1_2"/>
		</vehicle>
		<vehicle depart="96" id="39">
			<route edges="road_1_2_3 road_1_1_3"/>
		</vehicle>
		<vehicle depart="96" id="40">
			<route edges="road_1_2_3 road_1_1_0"/>
		</vehicle>
		<vehicle depart="98" id="41">
			<route edges="road_1_2_3 road_1_1_3"/>
		</vehicle>
		<vehicle depart="99" id="42">
			<route edges="road_1_0_1 road_1_1_1"/>
		</vehicle>
		<vehicle depart="99" id="43">
			<route edges="road_1_0_1 road_1_1_2"/>
		</vehicle>
		<vehicle depart="101" id="44">
			<route edges="road_1_2_3 road_1_1_3"/>
		</vehicle>
		<vehicle depart="103" id="45">
			<route edges="road_1_2_3 road_1_1_3"/>
		</vehicle>
		<vehicle depart="107" id="46">
			<route edges="road_1_2_3 road_1_1_3"/>
		</vehicle>
		<vehicle depart="111" id="47">
			<route edges="road_1_2_3 road_1_1_3"/>
		</vehicle>
		<vehicle depart="113" id="48">
			<route edges="road_0_1_0 road_1_1_0"/>
		</vehicle>
		<vehicle depart="117" id="49">
			<route edges="road_1_2_3 road_1_1_3"/>
		</vehicle>
		<vehicle depart="120" id="50">
			<route edges="road_1_0_1 road_1_1_1"/>
		</vehicle>
		<vehicle depart="126" id="51">
			<route edges="road_2_1_2 road_1_1_2"/>
		</vehicle>
		<vehicle depart="127" id="52">
			<route edges="road_2_1_2 road_1_1_2"/>
		</vehicle>
		<vehicle depart="127" id="53">
			<route edges="road_0_1_0 road_1_1_0"/>
		</vehicle>
		<vehicle depart="127" id="54">
			<route edges="road_1_0_1 road_1_1_1"/>
		</vehicle>
		<vehicle depart="128" id="55">
			<route edges="road_1_0_1 road_1_1_1"/>
		</vehicle>
		<vehicle depart="130" id="56">
			<route edges="road_1_0_1 road_1_1_1"/>
		</vehicle>
		<vehicle depart="132" id="57">
			<route edges="road_0_1_0 road_1_1_0"/>
		</vehicle>
		<vehicle depart="133" id="58">
			<route edges="road_1_0_1 road_1_1_1"/>
		</vehicle>
		<vehicle depart="133" id="59">
			<route edges="road_1_0_1 road_1_1_1"/>
		</vehicle>
		<vehicle depart="137" id="60">
			<route edges="road_1_2_3 road_1_1_3"/>
		</vehicle>
		<vehicle depart="138" id="61">
			<route edges="road_1_0_1 road_1_1_1"/>
		</vehicle>
		<vehicle depart="138" id="62">
			<route edges="road_2_1_2 road_1_1_2"/>
		</vehicle>
		<vehicle depart="139" id="63">
			<route edges="road_0_1_0 road_1_1_0"/>
		</vehicle>
		<vehicle depart="140" id="64">
			<route edges="road_0_1_0 road_1_1_0"/>
		</vehicle>
		<vehicle depart="141" id="65">
			<route edges="road_1_2_3 road_1_1_3"/>
		</vehicle>
		<vehicle depart="141" id="66">
			<route edges="road_2_1_2 road_1_1_2"/>
		</vehicle>
		<vehicle depart="141" id="67">
			<route edges="road_2_1_2 road_1_1_3"/>
		</vehicle>
		<vehicle depart="143" id="68">
			<route edges="road_2_1_2 road_1_1_2"/>
		</vehicle>
		<vehicle depart="149" id="69">
			<route edges="road_0_1_0 road_1_1_0"/>
		</vehicle>
		<vehicle depart="149" id="70">
			<route edges="road_0_1_0 road_1_1_1"/>
		</vehicle>
		<vehicle depart="152" id="71">
			<route edges="road_1_2_3 road_1_1_3"/>
		</vehicle>
		<vehicle depart="152" id="72">
			<route edges="road_0_1_0 road_1_1_0"/>
		</vehicle>
		<vehicle depart="155" id="73">
			<route edges="road_1_2_3 road_1_1_3"/>
		</vehicle>
		<vehicle depart="164" id="74">
			<route edges="road_1_2_3 road_1_1_3"/>
		</vehicle>
		<vehicle depart="165" id="75">
			<route edges="road_2_1_2 road_1_1_2"/>
		</vehicle>
		<vehicle depart="169" id="76">
			<route edges="road_2_1_2 road_1_1_2"/>
		</vehicle>
		<vehicle depart="169" id="77">
			<route edges="road_2_1_2 road_1_1_3"/>
		</vehicle>
		<vehicle depart="172" id="78">
			<route edges="road_2_1_2 road_1_1_2"/>
		</vehicle>
		<vehicle depart="173" id="79">
			<route edges="road_0_1_0 road_1_1_0"/>
		</vehicle>
		<vehicle depart="173" id="80">
			<route edges="road_2_1_2 road_1_1_2"/>
		</vehicle>
		<vehicle depart="176" id="81">
			<route edges="road_1_2_3 road_1_1_3"/>
		</vehicle>
		<vehicle depart="177" id="82">
			<route edges="road_0_1_0 road_1_1_0"/>
		</vehicle>
		<vehicle depart="177" id="83">
			<route edges="road_0_1_0 road_1_1_1"/>
		</vehicle>
		<vehicle depart="177" id="84">
			<route edges="road_2_1_2 road_1_1_2"/>
		</vehicle>
		<vehicle depart="182" id="85">
			<route edges="road_2_1_2 road_1_1_2"/>
		</vehicle>
		<vehicle depart="182" id="86">
			<route edges="road_0_1_0 road_1_1_0"/>
		</vehicle>
		<vehicle depart="183" id="87">
			<route edges="road_1_2_3 road_1_1_3"/>
		</vehicle>
		<vehicle depart="184" id="88">
			<route edges="road_1_2_3 road_1_1_3"/>
		</vehicle>
		<vehicle depart="185" id="89">
			<route edges="road_2_1_2 road_1_1_2"/>
		</vehicle>
		<vehicle depart="185" id="90">
			<route edges="road_2_1_2 road_1_1_2"/>
		</vehicle>
		<vehicle depart="193" id="91">
			<route edges="road_2_1_2 road_1_1_2"/>
		</vehicle>
		<vehicle depart="194" id="92">
			<route edges="road_0_1_0 road_1_1_0"/>
		</vehicle>
		<vehicle depart="195" id="93">
			<route edges="road_2_1_2 road_1_1_2"/>
		</vehicle>
		<vehicle depart="195" id="94">
			<route edges="road_2_1_2 road_1_1_3"/>
		</vehicle>
		<vehicle depart="201" id="95">
			<route edges="road_1_2_3 road_1_1_3"/>
		</vehicle>
		<vehicle depart="212" id="96">
			<route edges="road_1_2_3 road_1_1_3"/>
		</vehicle>
		<vehicle depart="217" id="97">
			<route edges="road_0_1_0 road_1_1_0"/>
		</vehicle>
		<vehicle depart="221" id="98">
			<route edges="road_1_0_1 road_1_1_1"/>
		</vehicle>
		<vehicle depart="223" id="99">
			<route edges="road_1_0_1 road_1_1_1"/>
		</vehicle>
		<vehicle depart="225" id="100">
			<route edges="road_1_2_3 road_1_1_3"/>
		</vehicle>
		<vehicle depart="228" id="101">
			<route edges="road_1_2_3 road_1_1_3"/>
		</vehicle>
		<vehicle depart="228" id="102">
			<route edges="road_1_2_3 road_1_1_0"/>
		</vehicle>
		<vehicle depart="233" id="103">
			<route edges="road_1_2_3 road_1_1_3"/>
		</vehicle>
		<vehicle depart="233" id="104">
			<route edges="road_1_2_3 road_1_1_0"/>
		</vehicle>
		<vehicle depart="242" id="105">
			<route edges="road_1_2_3 road_1_1_3"/>
		</vehicle>
		<vehicle depart="245" id="106">
			<route edges="road_1_2_3 road_1_1_3"/>
		</vehicle>
		<vehicle depart="254" id="107">
			<route edges="road_1_2_3 road_1_1_3"/>
		</vehicle>
		<vehicle depart="254" id="108">
			<route edges="road_1_2_3 road_1_1_3"/>
		</vehicle>
		<vehicle depart="256" id="109">
			<route edges="road_1_2_3 road_1_1_3"/>
		</vehicle>
		<vehicle depart="261" id="110">
			<route edges="road_1_2_3 road_1_1_3"/>
		</vehicle>
		<vehicle depart="263" id="111">
			<route edges="road_1_2_3 road_1_1_3"/>
		</vehicle>
		<vehicle depart="263" id="112">
			<route edges="road_1_2_3 road_1_1_0"/>
		</vehicle>
		<vehicle depart="264" id="113">
			<route edges="road_1_2_3 road_1_1_3"/>
		</vehicle>
		<vehicle depart="269" id="114">
			<route edges="road_1_0_1 road_1_1_1"/>
		</vehicle>
		<vehicle depart="269" id="115">
			<route edges="road_1_2_3 road_1_1_3"/>
		</vehicle>
		<vehicle depart="272" id="116">
			<route edges="road_1_2_3 road_1_1_3"/>
		</vehicle>
		<vehicle depart="275" id="117">
			<route edges="road_1_2_3 road_1_1_3"/>
		</vehicle>
		<vehicle depart="275" id="118">
			<route edges="road_1_2_3 road_1_1_0"/>
		</vehicle>
		<vehicle depart="285" id="119">
			<route edges="road_1_0_1 road_1_1_1"/>
		</vehicle>
		<vehicle depart="299" id="120">
			<route edges="road_0_1_0 road_1_1_0"/>
		</vehicle>
		<vehicle depart="304" id="121">
			<route edges="road_1_2_3 road_1_1_3"/>
		</vehicle>
		<vehicle depart="305" id="122">
			<route edges="road_0_1_0 road_1_1_0"/>
		</vehicle>
		<vehicle depart="306" id="123">
			<route edges="road_1_2_3 road_1_1_3"/>
		</vehicle>
		<vehicle depart="308" id="124">
			<route edges="road_2_1_2 road_1_1_2"/>
		</vehicle>
		<vehicle depart="310" id="125">
			<route edges="road_0_1_0 road_1_1_0"/>
		</vehicle>
		<vehicle depart="311" id="126">
			<route edges="road_2_1_2 road_1_1_2"/>
		</vehicle>
		<vehicle depart="315" id="127">
			<route edges="road_1_2_3 road_1_1_3"/>
		</vehicle>
		<vehicle depart="316" id="128">
			<route edges="road_0_1_0 road_1_1_0"/>
		</vehicle>
		<vehicle depart="316" id="129">
			<route edges="road_0_1_0 road_1_1_1"/>
		</vehicle>
		<vehicle depart="316" id="130">
			<route edges="road_1_0_1 road_1_1_1"/>
		</vehicle>
		<vehicle depart="319" id="131">
			<route edges="road_2_1_2 road_1_1_2"/>
		</vehicle>
		<vehicle depart="320" id="132">
			<route edges="road_0_1_0 road_1_1_0"/>
		</vehicle>
		<vehicle depart="321" id="133">
			<route edges="road_1_2_3 road_1_1_3"/>
		</vehicle>
		<vehicle depart="321" id="134">
			<route edges="road_1_2_3 road_1_1_0"/>
		</vehicle>
		<vehicle depart="321" id="135">
			<route edges="road_0_1_0 road_1_1_0"/>
		</vehicle>
		<vehicle depart="323" id="136">
			<route edges="road_0_1_0 road_1_1_0"/>
		</vehicle>
		<vehicle depart="323" id="137">
			<route edges="road_1_0_1 road_1_1_1"/>
		</vehicle>
		<vehicle depart="323" id="138">
			<route edges="road_1_0_1 road_1_1_2"/>
		</vehicle>
		<vehicle depart="329" id="139">
			<route edges="road_0_1_0 road_1_1_0"/>
		</vehicle>
		<vehicle depart="329" id="140">
			<route edges="road_0_1_0 road_1_1_1"/>
		</vehicle>
		<vehicle depart="330" id="141">
			<route edges="road_1_2_3 road_1_1_3"/>
		</vehicle>
		<vehicle depart="332" id="142">
			<route edges="road_2_1_2 road_1_1_2"/>
		</vehicle>
		<vehicle depart="335" id="143">
			<route edges="road_2_1_2 road_1_1_2"/>
		</vehicle>
		<vehicle depart="336" id="144">
			<route edges="road_0_1_0 road_1_1_0"/>
		</vehicle>
		<vehicle depart="341" id="145">
			<route edges="road_2_1_2 road_1_1_2"/>
		</vehicle>
		<vehicle depart="345" id="146">
			<route edges="road_2_1_2 road_1_1_2"/>
		</vehicle>
		<vehicle depart="348" id="147">
			<route edges="road_0_1_0 road_1_1_0"/>
		</vehicle>
		<vehicle depart="348" id="148">
			<route edges="road_0_1_0 road_1_1_0"/>
		</vehicle>
		<vehicle depart="349" id="149">
			<route edges="road_2_1_2 road_1_1_2"/>
		</vehicle>
		<vehicle depart="349" id="150">
			<route edges="road_2_1_2 road_1_1_2"/>
		</vehicle>
		<vehicle depart="351" id="151">
			<route edges="road_0_1_0 road_1_1_0"/>
		</vehicle>
		<vehicle depart="357" id="152">
			<route edges="road_0_1_0 road_1_1_0"/>
		</vehicle>
		<vehicle depart="358" id="153">
			<route edges="road_0_1_0 road_1_1_0"/>
		</vehicle>
		<vehicle depart="358" id="154">
			<route edges="road_2_1_2 road_1_1_2"/>
		</vehicle>
		<vehicle depart="364" id="155">
			<route edges="road_0_1_0 road_1_1_0"/>
		</vehicle>
		<vehicle depart="365" id="156">
			<route edges="road_2_1_2 road_1_1_2"/>
		</vehicle>
		<vehicle depart="367" id="157">
			<route edges="road_2_1_2 road_1_1_2"/>
		</vehicle>
		<vehicle depart="368" id="158">
			<route edges="road_0_1_0 road_1_1_0"/>
		</vehicle>
		<vehicle depart="369" id="159">
			<route edges="road_0_1_0 road_1_1_0"/>
		</vehicle>
		<vehicle depart="371" id="160">
			<route edges="road_1_2_3 road_1_1_3"/>
		</vehicle>
		<vehicle depart="373" id="161">
			<route edges="road_1_2_3 road_1_1_3"/>
		</vehicle>
		<vehicle depart="374" id="162">
			<route edges="road_0_1_0 road_1_1_0"/>
		</vehicle>
		<vehicle depart="375" id="163">
			<route edges="road_0_1_0 road_1_1_0"/>
		</vehicle>
		<vehicle depart="377" id="164">
			<route edges="road_2_1_2 road_1_1_2"/>
		</vehicle>
		<vehicle depart="377" id="165">
			<route edges="road_2_1_2 road_1_1_3"/>
		</vehicle>
		<vehicle depart="380" id="166">
			<route edges="road_2_1_2 road_1_1_2"/>
		</vehicle>
		<vehicle depart="380" id="167">
			<route edges="road_0_1_0 road_1_1_0"/>
		</vehicle>
		<vehicle depart="382" id="168">
			<route edges="road_2_1_2 road_1_1_2"/>
		</vehicle>
		<vehicle depart="382" id="169">
			<route edges="road_0_1_0 road_1_1_0"/>
		</vehicle>
		<vehicle depart="384" id="170">
			<route edges="road_1_2_3 road_1_1_3"/>
		</vehicle>
		<vehicle depart="385" id="171">
			<route edges="road_2_1_2 road_1_1_2"/>
		</vehicle>
		<vehicle depart="386" id="172">
			<route edges="road_1_2_3 road_1_1_3"/>
		</vehicle>
		<vehicle depart="387" id="173">
			<route edges="road_0_1_0 road_1_1_0"/>
		</vehicle>
		<vehicle depart="389" id="174">
			<route edges="road_2_1_2 road_1_1_2"/>
		</vehicle>
		<vehicle depart="389" id="175">
			<route edges="road_2_1_2 road_1_1_3"/>
		</vehicle>
		<vehicle depart="390" id="176">
			<route edges="road_2_1_2 road_1_1_2"/>
		</vehicle>
		<vehicle depart="391" id="177">
			<route edges="road_2_1_2 road_1_1_2"/>
		</vehicle>
		<vehicle depart="392" id="178">
			<route edges="road_2_1_2 road_1_1_2"/>
		</vehicle>
		<vehicle depart="395" id="179">
			<route edges="road_1_2_3 road_1_1_3"/>
		</vehicle>
		<vehicle depart="399" id="180">
			<route edges="road_0_1_0 road_1_1_0"/>
		</vehicle>
		<vehicle depart="400" id="181">
			<route edges="road_1_2_3 road_1_1_3"/>
		</vehicle>
		<vehicle depart="400" id="182">
			<route edges="road_1_2_3 road_1_1_0"/>
		</vehicle>
		<vehicle depart="406" id="183">
			<route edges="road_1_2_3 road_1_1_3"/>
		</vehicle>
		<vehicle depart="417" id="184">
			<route edges="road_1_2_3 road_1_1_3"/>
		</vehicle>
		<vehicle depart="432" id="185">
			<route edges="road_0_1_0 road_1_1_0"/>
		</vehicle>
		<vehicle depart="436" id="186">
			<route edges="road_1_2_3 road_1_1_3"/>
		</vehicle>
		<vehicle depart="437" id="187">
			<route edges="road_1_0_1 road_1_1_1"/>
		</vehicle>
		<vehicle depart="439" id="188">
			<route edges="road_1_2_3 road_1_1_3"/>
		</vehicle>
		<vehicle depart="441" id="189">
			<route edges="road_1_2_3 road_1_1_3"/>
		</vehicle>
		<vehicle depart="442" id="190">
			<route edges="road_1_0_1 road_1_1_1"/>
		</vehicle>
		<vehicle depart="444" id="191">
			<route edges="road_1_0_1 road_1_1_1"/>
		</vehicle>
		<vehicle depart="446" id="192">
			<route edges="road_1_2_3 road_1_1_3"/>
		</vehicle>
		<vehicle depart="454" id="193">
			<route edges="road_1_2_3 road_1_1_3"/>
		</vehicle>
		<vehicle depart="456" id="194">
			<route edges="road_1_0_1 road_1_1_1"/>
		</vehicle>
		<vehicle depart="463" id="195">
			<route edges="road_1_2_3 road_1_1_3"/>
		</vehicle>
		<vehicle depart="466" id="196">
			<route edges="road_2_1_2 road_1_1_2"/>
		</vehicle>
		<vehicle depart="466" id="197">
			<route edges="road_2_1_2 road_1_1_3"/>
		</vehicle>
		<vehicle depart="471" id="198">
			<route edges="road_1_2_3 road_1_1_3"/>
		</vehicle>
		<vehicle depart="478" id="199">
			<route edges="road_1_0_1 road_1_1_1"/>
		</vehicle>
		<vehicle depart="482" id="200">
			<route edges="road_2_1_2 road_1_1_2"/>
		</vehicle>
		<vehicle depart="484" id="201">
			<route edges="road_0_1_0 road_1_1_0"/>
		</vehicle>
		<vehicle depart="484" id="202">
			<route edges="road_0_1_0 road_1_1_1"/>
		</vehicle>
		<vehicle depart="491" id="203">
			<route edges="road_1_2_3 road_1_1_3"/>
		</vehicle>
		<vehicle depart="491" id="204">
			<route edges="road_2_1_2 road_1_1_2"/>
		</vehicle>
		<vehicle depart="505" id="205">
			<route edges="road_2_1_2 road_1_1_2"/>
		</vehicle>
		<vehicle depart="506" id="206">
			<route edges="road_1_2_3 road_1_1_3"/>
		</vehicle>
		<vehicle depart="508" id="207">
			<route edges="road_0_1_0 road_1_1_0"/>
		</vehicle>
		<vehicle depart="509" id="208">
			<route edges="road_2_1_2 road_1_1_2"/>
		</vehicle>
		<vehicle depart="513" id="209">
			<route edges="road_0_1_0 road_1_1_0"/>
		</vehicle>
		<vehicle depart="513" id="210">
			<route edges="road_0_1_0 road_1_1_1"/>
		</vehicle>
		<vehicle depart="521" id="211">
			<route edges="road_0_1_0 road_1_1_0"/>
		</vehicle>
		<vehicle depart="528" id="212">
			<route edges="road_0_1_0 road_1_1_0"/>
		</vehicle>
		<vehicle depart="528" id="213">
			<route edges="road_0_1_0 road_1_1_1"/>
		</vehicle>
		<vehicle depart="529" id="214">
			<route edges="road_0_1_0 road_1_1_0"/>
		</vehicle>
		<vehicle depart="530" id="215">
			<route edges="road_2_1_2 road_1_1_2"/>
		</vehicle>
		<vehicle depart="531" id="216">
			<route edges="road_0_1_0 road_1_1_0"/>
		</vehicle>
		<vehicle depart="534" id="217">
			<route edges="road_2_1_2 road_1_1_2"/>
		</vehicle>
		<vehicle depart="536" id="218">
			<route edges="road_2_1_2 road_1_1_2"/>
		</vehicle>
		<vehicle depart="536" id="219">
			<route edges="road_0_1_0 road_1_1_0"/>
		</vehicle>
		<vehicle depart="538" id="220">
			<route edges="road_0_1_0 road_1_1_0"/>
		</vehicle>
		<vehicle depart="542" id="221">
			<route edges="road_0_1_0 road_1_1_0"/>
		</vehicle>
		<vehicle depart="542" id="222">
			<route edges="road_2_1_2 road_1_1_2"/>
		</vehicle>
		<vehicle depart="543" id="223">
			<route edges="road_1_2_3 road_1_1_3"/>
		</vehicle>
		<vehicle depart="543" id="224">
			<route edges="road_0_1_0 road_1_1_0"/>
		</vehicle>
		<vehicle depart="545" id="225">
			<route edges="road_0_1_0 road_1_1_0"/>
		</vehicle>
		<vehicle depart="546" id="226">
			<route edges="road_2_1_2 road_1_1_2"/>
		</vehicle>
		<vehicle depart="546" id="227">
			<route edges="road_2_1_2 road_1_1_3"/>
		</vehicle>
		<vehicle depart="548" id="228">
			<route edges="road_2_1_2 road_1_1_2"/>
		</vehicle>
		<vehicle depart="549" id="229">
			<route edges="road_2_1_2 road_1_1_2"/>
		</vehicle>
		<vehicle depart="554" id="230">
			<route edges="road_0_1_0 road_1_1_0"/>
		</vehicle>
		<vehicle depart="559" id="231">
			<route edges="road_0_1_0 road_1_1_0"/>
		</vehicle>
		<vehicle depart="562" id="232">
			<route edges="road_0_1_0 road_1_1_0"/>
		</vehicle>
		<vehicle depart="567" id="233">
			<route edges="road_2_1_2 road_1_1_2"/>
		</vehicle>
		<vehicle depart="567" id="234">
			<route edges="road_2_1_2 road_1_1_3"/>
		</vehicle>
		<vehicle depart="577" id="235">
			<route edges="road_1_0_1 road_1_1_1"/>
		</vehicle>
		<vehicle depart="582" id="236">
			<route edges="road_1_2_3 road_1_1_3"/>
		</vehicle>
		<vehicle depart="586" id="237">
			<route edges="road_2_1_2 road_1_1_2"/>
		</vehicle>
		<vehicle depart="586" id="238">
			<route edges="road_2_1_2 road_1_1_3"/>
		</vehicle>
		<vehicle depart="591" id="239">
			<route edges="road_0_1_0 road_1_1_0"/>
		</vehicle>
		<vehicle depart="591" id="240">
			<route edges="road_0_1_0 road_1_1_1"/>
		</vehicle>
		<vehicle depart="615" id="241">
			<route edges="road_1_0_1 road_1_1_1"/>
		</vehicle>
		<vehicle depart="617" id="242">
			<route edges="road_1_0_1 road_1_1_1"/>
		</vehicle>
		<vehicle depart="621" id="243">
			<route edges="road_1_2_3 road_1_1_3"/>
		</vehicle>
		<vehicle depart="621" id="244">
			<route edges="road_1_2_3 road_1_1_0"/>
		</vehicle>
		<vehicle depart="624" id="245">
			<route edges="road_1_2_3 road_1_1_3"/>
		</vehicle>
		<vehicle depart="628" id="246">
			<route edges="road_1_2_3 road_1_1_3"/>
		</vehicle>
		<vehicle depart="629" id="247">
			<route edges="road_1_2_3 road_1_1_3"/>
		</vehicle>
		<vehicle depart="629" id="248">
			<route edges="road_1_2_3 road_1_1_0"/>
		</vehicle>
		<vehicle depart="629" id="249">
			<route edges="road_1_2_3 road_1_1_3"/>
		</vehicle>
		<vehicle depart="630" id="250">
			<route edges="road_1_0_1 road_1_1_1"/>
		</vehicle>
		<vehicle depart="631" id="251">
			<route edges="road_1_2_3 road_1_1_3"/>
		</vehicle>
		<vehicle depart="632" id="252">
			<route edges="road_1_2_3 road_1_1_3"/>
		</vehicle>
		<vehicle depart="633" id="253">
			<route edges="road_1_0_1 road_1_1_1"/>
		</vehicle>
		<vehicle depart="634" id="254">
			<route edges="road_1_2_3 road_1_1_3"/>
		</vehicle>
		<vehicle depart="635" id="255">
			<route edges="road_1_0_1 road_1_1_1"/>
		</vehicle>
		<vehicle depart="636" id="256">
			<route edges="road_1_2_3 road_1_1_3"/>
		</vehicle>
		<vehicle depart="636" id="257">
			<route edges="road_1_2_3 road_1_1_0"/>
		</vehicle>
		<vehicle depart="637" id="258">
			<route edges="road_1_2_3 road_1_1_3"/>
		</vehicle>
		<vehicle depart="641" id="259">
			<route edges="road_0_1_0 road_1_1_0"/>
		</vehicle>
		<vehicle depart="641" id="260">
			<route edges="road_0_1_0 road_1_1_1"/>
		</vehicle>
		<vehicle depart="641" id="261">
			<route edges="road_2_1_2 road_1_1_2"/>
		</vehicle>
		<vehicle depart="642" id="262">
			<route edges="road_1_2_3 road_1_1_3"/>
		</vehicle>
		<vehicle depart="642" id="263">
			<route edges="road_1_2_3 road_1_1_3"/>
		</vehicle>
		<vehicle depart="648" id="264">
			<route edges="road_1_2_3 road_1_1_3"/>
		</vehicle>
		<vehicle depart="654" id="265">
			<route edges="road_0_1_0 road_1_1_0"/>
		</vehicle>
		<vehicle depart="667" id="266">
			<route edges="road_2_1_2 road_1_1_2"/>
		</vehicle>
		<vehicle depart="673" id="267">
			<route edges="road_0_1_0 road_1_1_0"/>
		</vehicle>
		<vehicle depart="678" id="268">
			<route edges="road_2_1_2 road_1_1_2"/>
		</vehicle>
		<vehicle depart="679" id="269">
			<route edges="road_0_1_0 road_1_1_0"/>
		</vehicle>
		<vehicle depart="684" id="270">
			<route edges="road_2_1_2 road_1_1_2"/>
		</vehicle>
		<vehicle depart="684" id="271">
			<route edges="road_0_1_0 road_1_1_0"/>
		</vehicle>
		<vehicle depart="685" id="272">
			<route edges="road_1_2_3 road_1_1_3"/>
		</vehicle>
		<vehicle depart="698" id="273">
			<route edges="road_1_2_3 road_1_1_3"/>
		</vehicle>
		<vehicle depart="700" id="274">
			<route edges="road_1_2_3 road_1_1_3"/>
		</vehicle>
		<vehicle depart="705" id="275">
			<route edges="road_2_1_2 road_1_1_2"/>
		</vehicle>
		<vehicle depart="705" id="276">
			<route edges="road_2_1_2 road_1_1_3"/>
		</vehicle>
		<vehicle depart="705" id="277">
			<route edges="road_2_1_2 road_1_1_2"/>
		</vehicle>
		<vehicle depart="705" id="278">
			<route edges="road_2_1_2 road_1_1_3"/>
		</vehicle>
		<vehicle depart="706" id="279">
			<route edges="road_0_1_0 road_1_1_0"/>
		</vehicle>
		<vehicle depart="708" id="280">
			<route edges="road_2_1_2 road_1_1_2"/>
		</vehicle>
		<vehicle depart="708" id="281">
			<route edges="road_2_1_2 road_1_1_3"/>
		</vehicle>
		<vehicle depart="709" id="282">
			<route edges="road_2_1_2 road_1_1_2"/>
		</vehicle>
		<vehicle depart="711" id="283">
			<route edges="road_1_2_3 road_1_1_3"/>
		</vehicle>
		<vehicle depart="711" id="284">
			<route edges="road_0_1_0 road_1_1_0"/>
		</vehicle>
		<vehicle depart="716" id="285">
			<route edges="road_2_1_2 road_1_1_2"/>
		</vehicle>
		<vehicle depart="717" id="286">
			<route edges="road_2_1_2 road_1_1_2"/>
		</vehicle>
		<vehicle depart="718" id="287">
			<route edges="road_2_1_2 road_1_1_2"/>
		</vehicle>
		<vehicle depart="718" id="288">
			<route edges="road_2_1_2 road_1_1_3"/>
		</vehicle>
		<vehicle depart="720" id="289">
			<route edges="road_0_1_0 road_1_1_0"/>
		</vehicle>
		<vehicle depart="721" id="290">
			<route edges="road_1_2_3 road_1_1_3"/>
		</vehicle>
		<vehicle depart="722" id="291">
			<route edges="road_2_1_2 road_1_1_2"/>
		</vehicle>
		<vehicle depart="722" id="292">
			<route edges="road_1_0_1 road_1_1_1"/>
		</vehicle>
		<vehicle depart="725" id="293">
			<route edges="road_2_1_2 road_1_1_2"/>
		</vehicle>
		<vehicle depart="728" id="294">
			<route edges="road_0_1_0 road_1_1_0"/>
		</vehicle>
		<vehicle depart="729" id="295">
			<route edges="road_1_0_1 road_1_1_1"/>
		</vehicle>
		<vehicle depart="730" id="296">
			<route edges="road_0_1_0 road_1_1_0"/>
		</vehicle>
		<vehicle depart="730" id="297">
			<route edges="road_2_1_2 road_1_1_2"/>
		</vehicle>
		<vehicle depart="732" id="298">
			<route edges="road_0_1_0 road_1_1_0"/>
		</vehicle>
		<vehicle depart="732" id="299">
			<route edges="road_0_1_0 road_1_1_1"/>
		</vehicle>
		<vehicle depart="734" id="300">
			<route edges="road_0_1_0 road_1_1_0"/>
		</vehicle>
		<vehicle depart="734" id="301">
			<route edges="road_0_1_0 road_1_1_0"/>
		</vehicle>
		<vehicle depart="737" id="302">
			<route edges="road_0_1_0 road_1_1_0"/>
		</vehicle>
		<vehicle depart="762" id="303">
			<route edges="road_0_1_0 road_1_1_0"/>
		</vehicle>
		<vehicle depart="763" id="304">
			<route edges="road_1_2_3 road_1_1_3"/>
		</vehicle>
		<vehicle depart="765" id="305">
			<route edges="road_1_2_3 road_1_1_3"/>
		</vehicle>
		<vehicle depart="767" id="306">
			<route edges="road_1_0_1 road_1_1_1"/>
		</vehicle>
		<vehicle depart="767" id="307">
			<route edges="road_1_2_3 road_1_1_3"/>
		</vehicle>
		<vehicle depart="767" id="308">
			<route edges="road_1_2_3 road_1_1_0"/>
		</vehicle>
		<vehicle depart="769" id="309">
			<route edges="road_1_2_3 road_1_1_3"/>
		</vehicle>
		<vehicle depart="773" id="310">
			<route edges="road_0_1_0 road_1_1_0"/>
		</vehicle>
		<vehicle depart="777" id="311">
			<route edges="road_2_1_2 road_1_1_2"/>
		</vehicle>
		<vehicle depart="786" id="312">
			<route edges="road_0_1_0 road_1_1_0"/>
		</vehicle>
		<vehicle depart="790" id="313">
			<route edges="road_0_1_0 road_1_1_0"/>
		</vehicle>
		<vehicle depart="790" id="314">
			<route edges="road_1_2_3 road_1_1_3"/>
		</vehicle>
		<vehicle depart="792" id="315">
			<route edges="road_0_1_0 road_1_1_0"/>
		</vehicle>
		<vehicle depart="798" id="316">
			<route edges="road_1_2_3 road_1_1_3"/>
		</vehicle>
		<vehicle depart="800" id="317">
			<route edges="road_1_2_3 road_1_1_3"/>
		</vehicle>
		<vehicle depart="800" id="318">
			<route edges="road_1_0_1 road_1_1_1"/>
		</vehicle>
		<vehicle depart="803" id="319">
			<route edges="road_1_2_3 road_1_1_3"/>
		</vehicle>
		<vehicle depart="804" id="320">
			<route edges="road_1_0_1 road_1_1_1"/>
		</vehicle>
		<vehicle depart="804" id="321">
			<route edges="road_1_0_1 road_1_1_2"/>
		</vehicle>
		<vehicle depart="805" id="322">
			<route edges="road_1_2_3 road_1_1_3"/>
		</vehicle>
		<vehicle depart="805" id="323">
			<route edges="road_1_2_3 road_1_1_0"/>
		</vehicle>
		<vehicle depart="806" id="324">
			<route edges="road_1_2_3 road_1_1_3"/>
		</vehicle>
		<vehicle depart="808" id="325">
			<route edges="road_1_0_1 road_1_1_1"/>
		</vehicle>
		<vehicle depart="812" id="326">
			<route edges="road_1_0_1 road_1_1_1"/>
		</vehicle>
		<vehicle depart="813" id="327">
			<route edges="road_1_2_3 road_1_1_3"/>
		</vehicle>
		<vehicle depart="814" id="328">
			<route edges="road_1_0_1 road_1_1_1"/>
		</vehicle>
		<vehicle depart="815" id="329">
			<route edges="road_2_1_2 road_1_1_2"/>
		</vehicle>
		<vehicle depart="815" id="330">
			<route edges="road_1_2_3 road_1_1_3"/>
		</vehicle>
		<vehicle depart="819" id="331">
			<route edges="road_1_0_1 road_1_1_1"/>
		</vehicle>
		<vehicle depart="819" id="332">
			<route edges="road_1_2_3 road_1_1_3"/>
		</vehicle>
		<vehicle depart="822" id="333">
			<route edges="road_1_2_3 road_1_1_3"/>
		</vehicle>
		<vehicle depart="822" id="334">
			<route edges="road_1_0_1 road_1_1_1"/>
		</vehicle>
		<vehicle depart="822" id="335">