<?xml version="1.0" encoding="utf-8"?>
<configuration>
	<input>
		<net-file value="hangzhou_1x1_qc-yn_18041608_1h.net.xml"/>
		<route-files value="hangzhou_1x1_qc-yn_18041608_1h.rou.xml"/>
	</input>
	<time>
		<begin value="0"/>
		<end value="3600"/>
	</time>
</configuration>
