<routes xmlns:xsi="http://www.w3.org/2001/XMLSchema-instance" xsi:noNamespaceSchemaLocation="http://sumo.dlr.de/xsd/routes_file.xsd">
    <vehicle id="0" depart="7.00">
        <route edges="top3D3 D3D2 D2C2 C2C3 C3D3 D3top3"/>
    </vehicle>
    <vehicle id="1" depart="7.00">
        <route edges="top3D3 D3D2 D2C2 C2C3 C3D3 D3top3"/>
    </vehicle>
    <vehicle id="2" depart="7.00">
        <route edges="top3D3 D3D2 D2C2 C2C3 C3D3 D3top3"/>
    </vehicle>
    <vehicle id="3" depart="7.00">
        <route edges="top3D3 D3D2 D2C2 C2C3 C3D3 D3top3"/>
    </vehicle>
    <vehicle id="4" depart="7.00">
        <route edges="top3D3 D3D2 D2C2 C2C3 C3D3 D3top3"/>
    </vehicle>
    <vehicle id="5" depart="7.00">
        <route edges="top3D3 D3D2 D2C2 C2C3 C3D3 D3top3"/>
    </vehicle>
    <vehicle id="6" depart="7.00">
        <route edges="top3D3 D3D2 D2C2 C2C3 C3D3 D3top3"/>
    </vehicle>
    <vehicle id="7" depart="7.00">
        <route edges="top3D3 D3D2 D2C2 C2C3 C3D3 D3top3"/>
    </vehicle>
    <vehicle id="8" depart="7.00">
        <route edges="top3D3 D3D2 D2C2 C2C3 C3D3 D3top3"/>
    </vehicle>
    <vehicle id="9" depart="7.00">
        <route edges="top3D3 D3D2 D2C2 C2C3 C3D3 D3top3"/>
    </vehicle>
    <vehicle id="10" depart="7.00">
        <route edges="top3D3 D3D2 D2C2 C2C3 C3D3 D3top3"/>
    </vehicle>
    <vehicle id="11" depart="7.00">
        <route edges="top3D3 D3D2 D2C2 C2C3 C3D3 D3top3"/>
    </vehicle>
    <vehicle id="12" depart="7.00">
        <route edges="top3D3 D3D2 D2C2 C2C3 C3D3 D3top3"/>
    </vehicle>
    <vehicle id="13" depart="7.00">
        <route edges="top3D3 D3D2 D2C2 C2C3 C3D3 D3top3"/>
    </vehicle>
</routes>