<?xml version="1.0" encoding="UTF-8"?>
<!-- generated on 2021-05-27 23:52:05.804645 by cutRoutes.py v1_9_1+0000-7ec6471b6c
  options: .\cologne3.net.xml .\cologne_routes.xml -o cologne3.rou.xml <doubleminus>orig-net .\cologne.net.xml <doubleminus>big
-->
<routes xmlns:xsi="http://www.w3.org/2001/XMLSchema-instance" xsi:noNamespaceSchemaLocation="http://sumo.dlr.de/xsd/routes_file.xsd">
	<vType id="pkw" vClass="passenger" speedDev="0.1" length="4.3" minGap="1.5"/>
    <vehicle arrival="28133.00" depart="25200.00" id="132705_410_0" type="pkw">
        <route edges="-5229966#3 319261593#15 319261593#16 241660955#0 241660955#4 241660955#6 4045332#0"/>
    </vehicle>
    <vehicle arrival="27907.00" depart="25201.00" id="106913_399_0" type="pkw">
        <route edges="31864804 200818108#0 241660955#0 241660955#4 241660955#6 241660955#7 241660955#10 241660955#11 241660955#13 241660955#14 241660955#17"/>
    </vehicle>
    <vehicle arrival="33326.00" depart="25202.00" id="73303_385_0" type="pkw">
        <route edges="319261593#12 319261593#15 8197886#0 200818108#0 4145590#0"/>
    </vehicle>
    <vehicle arrival="25426.00" depart="25203.00" id="113109_402_0" type="pkw">
        <route edges="4999334 -241660955#5 -241660955#3 -200818108#1 -31864804"/>
    </vehicle>
    <vehicle arrival="25695.00" depart="25204.00" id="73223_384_0" type="pkw">
        <route edges="241660957#0 4999331#0"/>
    </vehicle>
    <vehicle arrival="25344.00" depart="25206.00" id="98545_395_0" type="pkw">
        <route edges="4045330 241660955#11 241660955#13 241660955#14 241660955#17"/>
    </vehicle>
    <vehicle arrival="31172.00" depart="25207.00" id="120846_405_0" type="pkw">
        <route edges="31864804 200818108#0 241660955#0 241660955#4 -4999334"/>
    </vehicle>
    <vehicle arrival="26268.00" depart="25208.00" id="122325_406_0" type="pkw">
        <route edges="319261593#12 319261593#15 8197886#0 -31864804"/>
    </vehicle>
    <vehicle arrival="25781.00" depart="25211.00" id="111294_401_0" type="pkw">
        <route edges="-5229966#3 319261593#15 319261593#16 4145590#0"/>
    </vehicle>
    <vehicle arrival="28353.00" depart="25211.00" id="163719_422_0" type="pkw">
        <route edges="4045330 241660955#11 241660955#13 241660955#14 241660955#17"/>
    </vehicle>
    <vehicle arrival="30651.00" depart="25211.00" id="160296_421_0" type="pkw">
        <route edges="241660955#13 241660955#14 241660955#17"/>
    </vehicle>
    <vehicle arrival="25389.00" depart="25212.00" id="132667_410_0" type="pkw">
        <route edges="-31800061#0 241660955#4 -4999334"/>
    </vehicle>
    <vehicle arrival="25355.00" depart="25213.00" id="132022_410_0" type="pkw">
        <route edges="241660957#0 4999331#0"/>
    </vehicle>
    <vehicle arrival="31568.00" depart="25213.00" id="118698_405_0" type="pkw">
        <route edges="-5229966#3 319261593#15 319261593#16 4145590#0"/>
    </vehicle>
    <vehicle arrival="27221.00" depart="25215.00" id="169266_425_0" type="pkw">
        <route edges="-31864804 31864804 200818108#0 241660955#0 241660955#4 241660955#6 241660955#7 241660955#10 241660955#11 241660955#13 241660955#14 -241660955#16 -241660955#13 -41910184"/>
    </vehicle>
    <vehicle arrival="27785.00" depart="25215.00" id="79538_387_0" type="pkw">
        <route edges="-5229966#3 319261593#15 319261593#16 4999331#0"/>
    </vehicle>
    <vehicle arrival="25445.00" depart="25216.00" id="141383_415_0" type="pkw">
        <route edges="41910184 241660955#13 4145589#0"/>
    </vehicle>
    <vehicle arrival="25585.00" depart="25223.00" id="131963_410_0" type="pkw">
        <route edges="-31800061#0 241660955#4 -4999334"/>
    </vehicle>
    <vehicle arrival="25589.00" depart="25225.00" id="161160_421_0" type="pkw">
        <route edges="241660957#0 4999331#0"/>
    </vehicle>
    <vehicle arrival="26770.00" depart="25226.00" id="173797_427_0" type="pkw">
        <route edges="-41910186 41910186 -241660955#3 4145590#0"/>
    </vehicle>
    <vehicle arrival="26801.00" depart="25227.00" id="153968_420_0" type="pkw">
        <route edges="319261593#12 319261593#15 8197886#0 -31864804"/>
    </vehicle>
    <vehicle arrival="25691.00" depart="25228.00" id="169122_425_0" type="pkw">
        <route edges="-4999334"/>
    </vehicle>
    <vehicle arrival="30077.00" depart="25228.00" id="83081_390_0" type="pkw">
        <route edges="31864804 200818108#0 241660955#0 241660955#4 241660955#6 -241660955#6 -4999334"/>
    </vehicle>
    <vehicle arrival="25452.00" depart="25229.00" id="68266_381_0" type="pkw">
        <route edges="4045329#5 41910185#0"/>
    </vehicle>
    <vehicle arrival="27379.00" depart="25229.00" id="157649_421_0" type="pkw">
        <route edges="319261593#12 319261593#15 8197886#0 -31864804"/>
    </vehicle>
    <vehicle arrival="27748.00" depart="25229.00" id="148720_417_0" type="pkw">
        <route edges="31864804 200818108#0 241660955#0 241660955#4 241660955#6 241660955#7 241660955#10 241660955#11 -41910184"/>
    </vehicle>
    <vehicle arrival="25428.00" depart="25231.00" id="81370_389_0" type="pkw">
        <route edges="4045329#5 241660955#10 -4045330"/>
    </vehicle>
    <vehicle arrival="27120.00" depart="25231.00" id="140878_414_0" type="pkw">
        <route edges="-130160207#0 241660955#17"/>
    </vehicle>
    <vehicle arrival="31520.00" depart="25232.00" id="174028_427_0" type="pkw">
        <route edges="319261593#12 319261593#15 8197886#0 200818108#0 4145590#0"/>
    </vehicle>
    <vehicle arrival="26342.00" depart="25233.00" id="100929_396_0" type="pkw">
        <route edges="-5229966#3 319261593#15 319261593#16 4145590#0"/>
    </vehicle>
    <vehicle arrival="27449.00" depart="25233.00" id="141513_415_0" type="pkw">
        <route edges="4999334 -241660955#5 -241660955#3 4145590#0"/>
    </vehicle>
    <vehicle arrival="26399.00" depart="25235.00" id="149066_417_0" type="pkw">
        <route edges="31864804 200818108#0 4999331#0"/>
    </vehicle>
    <vehicle arrival="28551.00" depart="25235.00" id="134770_411_0" type="pkw">
        <route edges="-31800061#0 241660955#4 241660955#6 241660955#7 241660955#10 241660955#11 -41910184"/>
    </vehicle>
    <vehicle arrival="30883.00" depart="25236.00" id="163598_422_0" type="pkw">
        <route edges="-130160207#0 241660955#17"/>
    </vehicle>
    <vehicle arrival="25698.00" depart="25237.00" id="118681_405_0" type="pkw">
        <route edges="4999334 -241660955#5 -241660955#3 -200818108#1 -31864804"/>
    </vehicle>
    <vehicle arrival="26021.00" depart="25240.00" id="166826_424_0" type="pkw">
        <route edges="41910184 241660955#13 4145589#0"/>
    </vehicle>
    <vehicle arrival="30088.00" depart="25240.00" id="153704_420_0" type="pkw">
        <route edges="-31800061#0 241660955#4 241660955#6 241660955#7 241660955#10 241660955#11 -41910184"/>
    </vehicle>
    <vehicle arrival="25408.00" depart="25242.00" id="85241_390_0" type="pkw">
        <route edges="41910184 241660955#13 241660955#14 241660955#17"/>
    </vehicle>
    <vehicle arrival="25566.00" depart="25244.00" id="161841_421_0" type="pkw">
        <route edges="31864804 200818108#0 4999331#0"/>
    </vehicle>
    <vehicle arrival="25757.00" depart="25244.00" id="140163_414_0" type="pkw">
        <route edges="241660955#13 -241660955#13 -41910184"/>
    </vehicle>
    <vehicle arrival="32289.00" depart="25248.00" id="137478_412_0" type="pkw">
        <route edges="4045330 241660955#11 241660955#13 241660955#14 241660955#17"/>
    </vehicle>
    <vehicle arrival="26032.00" depart="25249.00" id="150954_418_0" type="pkw">
        <route edges="-130160207#0 -241660955#16 -241660955#13 -41910184"/>
    </vehicle>
    <vehicle arrival="28669.00" depart="25249.00" id="125978_406_0" type="pkw">
        <route edges="-5229966#3 319261593#15 319261593#16 4145590#0"/>
    </vehicle>
    <vehicle arrival="26522.00" depart="25251.00" id="111993_401_0" type="pkw">
        <route edges="4045329#5 41910185#0"/>
    </vehicle>
    <vehicle arrival="26670.00" depart="25253.00" id="160813_421_0" type="pkw">
        <route edges="41910184 241660955#13 4145589#0"/>
    </vehicle>
    <vehicle arrival="28969.00" depart="25253.00" id="163366_422_0" type="pkw">
        <route edges="-130160207#0 241660955#17"/>
    </vehicle>
    <vehicle arrival="26990.00" depart="25255.00" id="158876_421_0" type="pkw">
        <route edges="319261593#12 319261593#15 8197886#0 -31864804"/>
    </vehicle>
    <vehicle arrival="27199.00" depart="25256.00" id="155750_420_0" type="pkw">
        <route edges="-130160207#0 241660955#17"/>
    </vehicle>
    <vehicle arrival="25391.00" depart="25260.00" id="123109_406_0" type="pkw">
        <route edges="241660957#0 4999331#0"/>
    </vehicle>
    <vehicle arrival="25556.00" depart="25260.00" id="100301_396_0" type="pkw">
        <route edges="-241660955#17 130160207#0"/>
    </vehicle>
    <vehicle arrival="25836.00" depart="25260.00" id="131925_410_0" type="pkw">
        <route edges="319261593#12 319261593#15 8197886#0 200818108#0 241660955#0 -41910186"/>
    </vehicle>
    <vehicle arrival="25698.00" depart="25262.00" id="126562_407_0" type="pkw">
        <route edges="241660957#0 4999331#0"/>
    </vehicle>
    <vehicle arrival="34569.00" depart="25263.00" id="161578_421_0" type="pkw">
        <route edges="-4999334"/>
    </vehicle>
    <vehicle arrival="25844.00" depart="25264.00" id="163790_422_0" type="pkw">
        <route edges="-130160207#0 130160207#0"/>
    </vehicle>
    <vehicle arrival="25418.00" depart="25266.00" id="168647_425_0" type="pkw">
        <route edges="-4999334"/>
    </vehicle>
    <vehicle arrival="25688.00" depart="25267.00" id="165473_423_0" type="pkw">
        <route edges="41910186 -241660955#3 -200818108#1 -31864804"/>
    </vehicle>
    <vehicle arrival="27592.00" depart="25269.00" id="157767_421_0" type="pkw">
        <route edges="31864804 200818108#0 241660955#0 -41910186"/>
    </vehicle>
    <vehicle arrival="26375.00" depart="25270.00" id="153005_419_0" type="pkw">
        <route edges="41910184 241660955#13 4145589#0"/>
    </vehicle>
    <vehicle arrival="32139.00" depart="25270.00" id="100843_396_0" type="pkw">
        <route edges="319261593#12 319261593#15 8197886#0 200818108#0 4145590#0"/>
    </vehicle>
    <vehicle arrival="28200.00" depart="25274.00" id="149951_417_0" type="pkw">
        <route edges="-130160207#0 241660955#17"/>
    </vehicle>
    <vehicle arrival="26702.00" depart="25275.00" id="76573_386_0" type="pkw">
        <route edges="-241660955#17 130160207#0"/>
    </vehicle>
    <vehicle arrival="31323.00" depart="25275.00" id="173932_427_0" type="pkw">
        <route edges="-41910185#2 241660955#10 241660955#11 241660955#13 241660955#14 241660955#17"/>
    </vehicle>
    <vehicle arrival="25801.00" depart="25276.00" id="71667_383_0" type="pkw">
        <route edges="241660957#0 4999331#0"/>
    </vehicle>
    <vehicle arrival="27712.00" depart="25276.00" id="150860_418_0" type="pkw">
        <route edges="31864804 200818108#0 4999331#0"/>
    </vehicle>
    <vehicle arrival="25644.00" depart="25279.00" id="149148_417_0" type="pkw">
        <route edges="-130160207#0 -241660955#16 -241660955#13 -41910184"/>
    </vehicle>
    <vehicle arrival="25548.00" depart="25281.00" id="168091_425_0" type="pkw">
        <route edges="-130160207#0 -241660955#16 -241660955#13 -41910184"/>
    </vehicle>
    <vehicle arrival="25682.00" depart="25284.00" id="139107_413_0" type="pkw">
        <route edges="-130160207#0 -241660955#16 -241660955#13 -41910184"/>
    </vehicle>
    <vehicle arrival="27062.00" depart="25285.00" id="164227_422_0" type="pkw">
        <route edges="4999334 -241660955#5 -241660955#3 -200818108#1 -31864804"/>
    </vehicle>
    <vehicle arrival="27207.00" depart="25285.00" id="172020_426_0" type="pkw">
        <route edges="31864804 200818108#0 4999331#0"/>
    </vehicle>
    <vehicle arrival="25330.00" depart="25286.00" id="104671_398_0" type="pkw">
        <route edges="-41910185#2 241660955#10 241660955#11"/>
    </vehicle>
    <vehicle arrival="29842.00" depart="25287.00" id="139284_413_0" type="pkw">
        <route edges="319261593#12 319261593#15 8197886#0 200818108#0 241660955#0 241660955#4 241660955#6 241660955#7 41910185#0"/>
    </vehicle>
    <vehicle arrival="25324.00" depart="25288.00" id="67548_381_0" type="pkw">
        <route edges="-41910185#2 241660955#10"/>
    </vehicle>
    <vehicle arrival="26790.00" depart="25288.00" id="170585_426_0" type="pkw">
        <route edges="241660957#0 4999331#0"/>
    </vehicle>
    <vehicle arrival="27549.00" depart="25288.00" id="155359_420_0" type="pkw">
        <route edges="31864804 -31864804"/>
    </vehicle>
    <vehicle arrival="31126.00" depart="25289.00" id="115536_403_0" type="pkw">
        <route edges="319261593#12 319261593#15 8197886#0 200818108#0 4145590#0"/>
    </vehicle>
    <vehicle arrival="26268.00" depart="25294.00" id="163684_422_0" type="pkw">
        <route edges="4045330 241660955#11 241660955#13 241660955#14 241660955#17"/>
    </vehicle>
    <vehicle arrival="25920.00" depart="25295.00" id="97604_395_0" type="pkw">
        <route edges="319261593#12 319261593#15 319261593#16 -200818108#1 -31864804"/>
    </vehicle>
    <vehicle arrival="25499.00" depart="25297.00" id="84339_390_0" type="pkw">
        <route edges="319261593#12 319261593#15 319261593#16 4145590#0"/>
    </vehicle>
    <vehicle arrival="26099.00" depart="25297.00" id="147523_416_0" type="pkw">
        <route edges="241660957#0 4999331#0"/>
    </vehicle>
    <vehicle arrival="25552.00" depart="25298.00" id="126024_407_0" type="pkw">
        <route edges="319261593#12 319261593#15 319261593#16 -200818108#1 -31864804"/>
    </vehicle>
    <vehicle arrival="27057.00" depart="25298.00" id="134193_411_0" type="pkw">
        <route edges="31864804 200818108#0 4999331#0"/>
    </vehicle>
    <vehicle arrival="25354.00" depart="25300.00" id="143042_415_0" type="pkw">
        <route edges="31864804 200818108#0 4145590#0"/>
    </vehicle>
    <vehicle arrival="25792.00" depart="25300.00" id="85782_390_0" type="pkw">
        <route edges="31864804 200818108#0 4999331#0"/>
    </vehicle>
    <vehicle arrival="28385.00" depart="25300.00" id="147095_416_0" type="pkw">
        <route edges="-130160207#0 241660955#17"/>
    </vehicle>
    <vehicle arrival="25551.00" depart="25301.00" id="147727_416_0" type="pkw">
        <route edges="41910184 241660955#13 4145589#0"/>
    </vehicle>
    <vehicle arrival="25565.00" depart="25301.00" id="162714_422_0" type="pkw">
        <route edges="4999334 -4999334"/>
    </vehicle>
    <vehicle arrival="25935.00" depart="25301.00" id="129018_408_0" type="pkw">
        <route edges="319261593#12 319261593#15 8197886#0 -31864804"/>
    </vehicle>
    <vehicle arrival="25592.00" depart="25302.00" id="121240_405_0" type="pkw">
        <route edges="241660957#0 4999331#0"/>
    </vehicle>
    <vehicle arrival="26580.00" depart="25302.00" id="119667_405_0" type="pkw">
        <route edges="319261593#12 319261593#15 319261593#16 -200818108#1 -31864804"/>
    </vehicle>
    <vehicle arrival="25528.00" depart="25303.00" id="171899_426_0" type="pkw">
        <route edges="-41910185#2 -4045329#5"/>
    </vehicle>
    <vehicle arrival="28352.00" depart="25303.00" id="144088_416_0" type="pkw">
        <route edges="241660955#6 -241660955#6 -4999334"/>
    </vehicle>
    <vehicle arrival="28303.00" depart="25305.00" id="168951_425_0" type="pkw">
        <route edges="31864804 200818108#0 241660955#0 241660955#4 241660955#6 241660955#7 41910185#0"/>
    </vehicle>
    <vehicle arrival="25504.00" depart="25306.00" id="131068_409_0" type="pkw">
        <route edges="4999334 -241660955#5 -241660955#3 -200818108#1 -31864804"/>
    </vehicle>
    <vehicle arrival="26968.00" depart="25306.00" id="148750_417_0" type="pkw">
        <route edges="31864804 200818108#0 4999331#0"/>
    </vehicle>
    <vehicle arrival="26767.00" depart="25309.00" id="80569_388_0" type="pkw">
        <route edges="319261593#12 319261593#15 319261593#16 4145590#0"/>
    </vehicle>
    <vehicle arrival="28929.00" depart="25309.00" id="142858_415_0" type="pkw">
        <route edges="-130160207#0 241660955#17"/>
    </vehicle>
    <vehicle arrival="31457.00" depart="25310.00" id="117979_404_0" type="pkw">
        <route edges="31864804 200818108#0 241660955#0 241660955#4 241660955#6 -241660955#6 -4999334"/>
    </vehicle>
    <vehicle arrival="25602.00" depart="25312.00" id="136043_411_0" type="pkw">
        <route edges="31864804 200818108#0 241660955#0 241660955#4 241660955#6 241660955#7 -4045329#5"/>
    </vehicle>
    <vehicle arrival="25663.00" depart="25312.00" id="123407_406_0" type="pkw">
        <route edges="319261593#12 319261593#15 319261593#16 -200818108#1 -31864804"/>
    </vehicle>
    <vehicle arrival="25454.00" depart="25313.00" id="131501_410_0" type="pkw">
        <route edges="241660957#0 4999331#0"/>
    </vehicle>
    <vehicle arrival="25525.00" depart="25313.00" id="146052_416_0" type="pkw">
        <route edges="319261593#12 319261593#15 319261593#16 4145590#0"/>
    </vehicle>
    <vehicle arrival="30297.00" depart="25313.00" id="152332_419_0" type="pkw">
        <route edges="-130160207#0 241660955#17"/>
    </vehicle>
    <vehicle arrival="25441.00" depart="25315.00" id="138333_412_0" type="pkw">
        <route edges="31864804 200818108#0 241660955#0 -41910186"/>
    </vehicle>
    <vehicle arrival="25720.00" depart="25315.00" id="133047_410_0" type="pkw">
        <route edges="31864804 200818108#0 241660955#0 241660955#4 241660955#6 4045332#0"/>
    </vehicle>
    <vehicle arrival="33503.00" depart="25315.00" id="158371_421_0" type="pkw">
        <route edges="-130160207#0 241660955#17"/>
    </vehicle>
    <vehicle arrival="26870.00" depart="25316.00" id="108867_400_0" type="pkw">
        <route edges="319261593#12 319261593#15 319261593#16 -200818108#1 -31864804"/>
    </vehicle>
    <vehicle arrival="26842.00" depart="25318.00" id="134444_411_0" type="pkw">
        <route edges="319261593#12 319261593#15 319261593#16 -200818108#1 -31864804"/>
    </vehicle>
    <vehicle arrival="27598.00" depart="25318.00" id="148463_417_0" type="pkw">
        <route edges="41910186 -241660955#3 4145590#0"/>
    </vehicle>
    <vehicle arrival="26033.00" depart="25319.00" id="95331_394_0" type="pkw">
        <route edges="319261593#12 319261593#15 319261593#16 -200818108#1 -31864804"/>
    </vehicle>
    <vehicle arrival="26478.00" depart="25320.00" id="101678_396_0" type="pkw">
        <route edges="-41910185#2 -4045329#5"/>
    </vehicle>
    <vehicle arrival="26652.00" depart="25321.00" id="138074_412_0" type="pkw">
        <route edges="319261593#12 319261593#15 319261593#16 -200818108#1 -31864804"/>
    </vehicle>
    <vehicle arrival="32191.00" depart="25321.00" id="158960_421_0" type="pkw">
        <route edges="4045330 241660955#11 241660955#13 241660955#14 241660955#17"/>
    </vehicle>
    <vehicle arrival="25397.00" depart="25322.00" id="139565_413_0" type="pkw">
        <route edges="-31800061#0 -41910186"/>
    </vehicle>
    <vehicle arrival="25437.00" depart="25323.00" id="164244_422_0" type="pkw">
        <route edges="41910186 -241660955#3 -200818108#1 -31864804"/>
    </vehicle>
    <vehicle arrival="29447.00" depart="25323.00" id="153883_420_0" type="pkw">
        <route edges="319261593#12 319261593#15 319261593#16 241660955#0 241660955#4 -4999334"/>
    </vehicle>
    <vehicle arrival="31601.00" depart="25323.00" id="149020_417_0" type="pkw">
        <route edges="4999331#0"/>
    </vehicle>
    <vehicle arrival="26906.00" depart="25325.00" id="96715_395_0" type="pkw">
        <route edges="41910186 -241660955#3 4145590#0"/>
    </vehicle>
    <vehicle arrival="27862.00" depart="25326.00" id="130434_409_0" type="pkw">
        <route edges="-130160207#0 241660955#17"/>
    </vehicle>
    <vehicle arrival="25354.00" depart="25327.00" id="81323_389_0" type="pkw">
        <route edges="41910186"/>
    </vehicle>
    <vehicle arrival="25735.00" depart="25331.00" id="146652_416_0" type="pkw">
        <route edges="319261593#12 319261593#15 319261593#16 -200818108#1 -31864804"/>
    </vehicle>
    <vehicle arrival="26026.00" depart="25331.00" id="167856_425_0" type="pkw">
        <route edges="41910184 241660955#13 4145589#0"/>
    </vehicle>
    <vehicle arrival="27114.00" depart="25334.00" id="101926_396_0" type="pkw">
        <route edges="319261593#12 319261593#15 319261593#16 -200818108#1 -31864804"/>
    </vehicle>
    <vehicle arrival="27687.00" depart="25335.00" id="135883_411_0" type="pkw">
        <route edges="319261593#12 319261593#15 319261593#16 -200818108#1 -31864804"/>
    </vehicle>
    <vehicle arrival="26067.00" depart="25336.00" id="127107_407_0" type="pkw">
        <route edges="31864804 200818108#0 4999331#0"/>
    </vehicle>
    <vehicle arrival="27925.00" depart="25337.00" id="92030_392_0" type="pkw">
        <route edges="-130160207#0 241660955#17"/>
    </vehicle>
    <vehicle arrival="27065.00" depart="25338.00" id="121916_406_0" type="pkw">
        <route edges="319261593#12 319261593#15 319261593#16 241660955#0 -41910186"/>
    </vehicle>
    <vehicle arrival="27561.00" depart="25338.00" id="129808_409_0" type="pkw">
        <route edges="241660957#0 4999331#0"/>
    </vehicle>
    <vehicle arrival="25746.00" depart="25339.00" id="157831_421_0" type="pkw">
        <route edges="31864804 200818108#0 4999331#0"/>
    </vehicle>
    <vehicle arrival="35616.00" depart="25339.00" id="150747_418_0" type="pkw">
        <route edges="-130160207#0 241660955#17"/>
    </vehicle>
    <vehicle arrival="31785.00" depart="25340.00" id="143018_415_0" type="pkw">
        <route edges="-41910185#2 241660955#10 241660955#11 241660955#13 241660955#14 241660955#17"/>
    </vehicle>
    <vehicle arrival="26256.00" depart="25341.00" id="156916_421_0" type="pkw">
        <route edges="31864804 200818108#0 241660955#0 241660955#4 241660955#6 241660955#7 241660955#10 241660955#11 -41910184"/>
    </vehicle>
    <vehicle arrival="28400.00" depart="25341.00" id="143643_416_0" type="pkw">
        <route edges="-130160207#0 241660955#17"/>
    </vehicle>
    <vehicle arrival="25451.00" depart="25343.00" id="112266_401_0" type="pkw">
        <route edges="-241660955#17 -241660955#16 -241660955#13 -241660955#12 -241660955#10 -241660955#9 -241660955#6 -241660955#5 31800061#0"/>
    </vehicle>
    <vehicle arrival="25458.00" depart="25343.00" id="123021_406_0" type="pkw">
        <route edges="241660957#0 4999331#0"/>
    </vehicle>
    <vehicle arrival="26051.00" depart="25344.00" id="128904_408_0" type="pkw">
        <route edges="319261593#12 319261593#15 319261593#16 241660955#0 241660955#4 -4999334"/>
    </vehicle>
    <vehicle arrival="26238.00" depart="25345.00" id="125105_406_0" type="pkw">
        <route edges="-241660955#17 -241660955#16 -241660955#13 -41910184"/>
    </vehicle>
    <vehicle arrival="29110.00" depart="25346.00" id="145057_416_0" type="pkw">
        <route edges="241660955#6 -241660955#6 -4999334"/>
    </vehicle>
    <vehicle arrival="26738.00" depart="25347.00" id="100808_396_0" type="pkw">
        <route edges="319261593#12 319261593#15 319261593#16 4145590#0"/>
    </vehicle>
    <vehicle arrival="26851.00" depart="25347.00" id="141002_414_0" type="pkw">
        <route edges="-241660955#17 130160207#0"/>
    </vehicle>
    <vehicle arrival="28255.00" depart="25347.00" id="158111_421_0" type="pkw">
        <route edges="31864804 200818108#0 241660955#0 241660955#4 241660955#6 241660955#7 241660955#10 -241660955#10 -4045329#5"/>
    </vehicle>
    <vehicle arrival="27765.00" depart="25348.00" id="163605_422_0" type="pkw">
        <route edges="31864804 200818108#0 241660955#0 241660955#4 241660955#6 241660955#7 -4045329#5"/>
    </vehicle>
    <vehicle arrival="25711.00" depart="25349.00" id="134587_411_0" type="pkw">
        <route edges="-241660955#17 -241660955#16 -241660955#13 -41910184"/>
    </vehicle>
    <vehicle arrival="27029.00" depart="25349.00" id="47956_365_0" type="pkw">
        <route edges="319261593#12 319261593#15 319261593#16 4145590#0"/>
    </vehicle>
    <vehicle arrival="27692.00" depart="25352.00" id="147117_416_0" type="pkw">
        <route edges="-130160207#0 241660955#17"/>
    </vehicle>
    <vehicle arrival="25675.00" depart="25353.00" id="166949_424_0" type="pkw">
        <route edges="319261593#12 319261593#15 319261593#16 -200818108#1 -31864804"/>
    </vehicle>
    <vehicle arrival="25415.00" depart="25354.00" id="111594_401_0" type="pkw">
        <route edges="-41910185#2 -4045329#5"/>
    </vehicle>
    <vehicle arrival="30483.00" depart="25354.00" id="140034_414_0" type="pkw">
        <route edges="-130160207#0 241660955#17"/>
    </vehicle>
    <vehicle arrival="25484.00" depart="25355.00" id="110542_401_0" type="pkw">
        <route edges="319261593#12 319261593#15 319261593#16 4145590#0"/>
    </vehicle>
    <vehicle arrival="25567.00" depart="25355.00" id="165524_423_0" type="pkw">
        <route edges="41910186 -241660955#3 -200818108#1 -31864804"/>
    </vehicle>
    <vehicle arrival="25690.00" depart="25355.00" id="134902_411_0" type="pkw">
        <route edges="31864804 200818108#0 4999331#0"/>
    </vehicle>
    <vehicle arrival="26359.00" depart="25356.00" id="118941_405_0" type="pkw">
        <route edges="31864804 200818108#0 241660955#0 241660955#4 241660955#6 241660955#7 241660955#10 241660955#11 -41910184"/>
    </vehicle>
    <vehicle arrival="28300.00" depart="25356.00" id="96483_394_0" type="pkw">
        <route edges="-130160207#0 241660955#17"/>
    </vehicle>
    <vehicle arrival="25725.00" depart="25357.00" id="121681_406_0" type="pkw">
        <route edges="-5229966#3"/>
    </vehicle>
    <vehicle arrival="27035.00" depart="25357.00" id="108803_400_0" type="pkw">
        <route edges="319261593#12 319261593#15 319261593#16 -200818108#1 -31864804"/>
    </vehicle>
    <vehicle arrival="26765.00" depart="25358.00" id="141257_415_0" type="pkw">
        <route edges="41910184 241660955#13 241660955#14 130160207#0"/>
    </vehicle>
    <vehicle arrival="27731.00" depart="25358.00" id="159648_421_0" type="pkw">
        <route edges="-241660955#17 -241660955#16 -241660955#13 -41910184"/>
    </vehicle>
    <vehicle arrival="27183.00" depart="25359.00" id="152995_419_0" type="pkw">
        <route edges="-130160207#0 241660955#17"/>
    </vehicle>
    <vehicle arrival="28579.00" depart="25359.00" id="107466_400_0" type="pkw">
        <route edges="31864804 200818108#0 241660955#0 -41910186"/>
    </vehicle>
    <vehicle arrival="31599.00" depart="25359.00" id="114624_403_0" type="pkw">
        <route edges="31864804 200818108#0 241660955#0 241660955#4 241660955#6 241660955#7 41910185#0"/>
    </vehicle>
    <vehicle arrival="28494.00" depart="25360.00" id="117565_404_0" type="pkw">
        <route edges="319261593#12 319261593#15 319261593#16 -200818108#1 -31864804"/>
    </vehicle>
    <vehicle arrival="31255.00" depart="25361.00" id="120720_405_0" type="pkw">
        <route edges="31864804 200818108#0 241660955#0 241660955#4 241660955#6 241660955#7 41910185#0"/>
    </vehicle>
    <vehicle arrival="27160.00" depart="25363.00" id="137159_412_0" type="pkw">
        <route edges="31864804 200818108#0 4999331#0"/>
    </vehicle>
    <vehicle arrival="29607.00" depart="25363.00" id="154488_420_0" type="pkw">
        <route edges="-130160207#0 241660955#17"/>
    </vehicle>
    <vehicle arrival="25909.00" depart="25364.00" id="131890_410_0" type="pkw">
        <route edges="319261593#12 319261593#15 319261593#16 4999331#0"/>
    </vehicle>
    <vehicle arrival="25605.00" depart="25365.00" id="73350_385_0" type="pkw">
        <route edges="-130160207#0 241660955#17"/>
    </vehicle>
    <vehicle arrival="28394.00" depart="25366.00" id="155932_420_0" type="pkw">
        <route edges="31864804 200818108#0 241660955#0 241660955#4 241660955#6 241660955#7 41910185#0"/>
    </vehicle>
    <vehicle arrival="25605.00" depart="25367.00" id="162626_422_0" type="pkw">
        <route edges="-41910185#2 -4045329#5"/>
    </vehicle>
    <vehicle arrival="25523.00" depart="25368.00" id="174779_427_0" type="pkw">
        <route edges="31864804 200818108#0 241660955#0 -41910186"/>
    </vehicle>
    <vehicle arrival="28410.00" depart="25368.00" id="159634_421_0" type="pkw">
        <route edges="241660957#0 4999331#0"/>
    </vehicle>
    <vehicle arrival="25504.00" depart="25370.00" id="150251_418_0" type="pkw">
        <route edges="41910186 -241660955#3 -200818108#1 -31864804"/>
    </vehicle>
    <vehicle arrival="25822.00" depart="25370.00" id="112455_401_0" type="pkw">
        <route edges="319261593#12 319261593#15 319261593#16 4145590#0"/>
    </vehicle>
    <vehicle arrival="27803.00" depart="25370.00" id="172282_426_0" type="pkw">
        <route edges="31864804 200818108#0 241660955#0 -41910186"/>
    </vehicle>
    <vehicle arrival="25978.00" depart="25371.00" id="149986_417_0" type="pkw">
        <route edges="241660955#4 -241660955#5 -241660955#3 -200818108#1 -31864804"/>
    </vehicle>
    <vehicle arrival="25902.00" depart="25372.00" id="121623_406_0" type="pkw">
        <route edges="31864804 200818108#0 4999331#0"/>
    </vehicle>
    <vehicle arrival="25957.00" depart="25372.00" id="159786_421_0" type="pkw">
        <route edges="-130160207#0 -241660955#16 -241660955#13 -41910184"/>
    </vehicle>
    <vehicle arrival="28513.00" depart="25372.00" id="128439_408_0" type="pkw">
        <route edges="319261593#12 319261593#15 319261593#16 -200818108#1 -31864804"/>
    </vehicle>
    <vehicle arrival="25487.00" depart="25373.00" id="167401_425_0" type="pkw">
        <route edges="41910186 -241660955#3 -200818108#1 -31864804"/>
    </vehicle>
    <vehicle arrival="29673.00" depart="25373.00" id="164971_423_0" type="pkw">
        <route edges="31864804 200818108#0 241660955#0 -41910186"/>
    </vehicle>