<?xml version="1.0" encoding="UTF-8"?>
<routes xmlns:xsi="http://www.w3.org/2001/XMLSchema-instance" xsi:noNamespaceSchemaLocation="http://sumo.dlr.de/xsd/routes_file.xsd">
    <vType id="pkw" length="4.30" minGap="1.50" vClass="passenger"/>
    <vehicle id="124779_406_0" type="pkw" depart="25205.00" >
        <route edges="31864804 200818108#0 241660955#0 241660955#4 241660955#6 241660955#7 241660955#10 241660955#11 241660955#13 241660955#14 241660955#17"/>
    </vehicle>
</routes>