<configuration>
  <input>
    <net-file value="cologne1.net.xml"/>
<<<<<<< HEAD
	<route-files value="cologne1_1.rou.xml"/>
=======
	<route-files value="cologne1.rou.xml"/>
>>>>>>> c9e0f6d3a23887a5f24015a4ed75bf97be5217de
  </input>
  <time>
    <begin value="25200"/>
    <end value="28800"/>
  </time>
</configuration>
